MODEL 1
REMARK VINA RESULT:      -3.2      0.000      0.000
REMARK  Name = .\Allicin.pdb
REMARK  7 active torsions:
REMARK  status: ('A' for Active; 'I' for Inactive)
REMARK    1  A    between atoms: C1_1  and  C2_2
REMARK    2  A    between atoms: C2_2  and  O1_10
REMARK    3  A    between atoms: C3_3  and  C4_4
REMARK    4  A    between atoms: C4_4  and  S1_5
REMARK    5  A    between atoms: S1_5  and  S2_6
REMARK    6  A    between atoms: S2_6  and  C5_7
REMARK    7  A    between atoms: C5_7  and  C6_8
REMARK                            x       y       z     vdW  Elec       q    Type
REMARK                         _______ _______ _______ _____ _____    ______ ____
ROOT
ATOM      1  C4  UNL     1     -25.233  38.341   2.502  0.00  0.00    +0.000 C 
ENDROOT
BRANCH   1   4
ATOM      2  C1  UNL     1     -21.862  37.576   0.768  0.00  0.00    +0.000 C 
ATOM      3  C2  UNL     1     -22.909  38.243   1.610  0.00  0.00    +0.000 C 
ATOM      4  C3  UNL     1     -24.144  37.729   1.670  0.00  0.00    +0.000 C 
BRANCH   3   5
ATOM      5  O1  UNL     1     -22.589  39.387   2.341  0.00  0.00    +0.000 OA
ATOM      6  H12 UNL     1     -22.189  39.329   3.270  0.00  0.00    +0.000 HD
ENDBRANCH   3   5
ENDBRANCH   1   4
BRANCH   1   7
ATOM      7  S1  UNL     1     -25.414  37.461   4.091  0.00  0.00    +0.000 S 
BRANCH   7   8
ATOM      8  S2  UNL     1     -25.160  39.218   5.284  0.00  0.00    +0.000 S 
BRANCH   8   9
ATOM      9  C5  UNL     1     -25.558  40.368   3.928  0.00  0.00    +0.000 C 
BRANCH   9  10
ATOM     10  C6  UNL     1     -25.313  41.784   4.364  0.00  0.00    +0.000 C 
ATOM     11  C7  UNL     1     -26.276  42.710   4.333  0.00  0.00    +0.000 C 
ENDBRANCH   9  10
ENDBRANCH   8   9
ENDBRANCH   7   8
ENDBRANCH   1   7
TORSDOF 6
ENDMDL
MODEL 2
REMARK VINA RESULT:      -3.2      2.033      4.637
REMARK  Name = .\Allicin.pdb
REMARK  7 active torsions:
REMARK  status: ('A' for Active; 'I' for Inactive)
REMARK    1  A    between atoms: C1_1  and  C2_2
REMARK    2  A    between atoms: C2_2  and  O1_10
REMARK    3  A    between atoms: C3_3  and  C4_4
REMARK    4  A    between atoms: C4_4  and  S1_5
REMARK    5  A    between atoms: S1_5  and  S2_6
REMARK    6  A    between atoms: S2_6  and  C5_7
REMARK    7  A    between atoms: C5_7  and  C6_8
REMARK                            x       y       z     vdW  Elec       q    Type
REMARK                         _______ _______ _______ _____ _____    ______ ____
ROOT
ATOM      1  C4  UNL     1     -24.030  39.874   5.485  0.00  0.00    +0.000 C 
ENDROOT
BRANCH   1   4
ATOM      2  C1  UNL     1     -26.655  42.623   4.772  0.00  0.00    +0.000 C 
ATOM      3  C2  UNL     1     -25.437  41.755   4.655  0.00  0.00    +0.000 C 
ATOM      4  C3  UNL     1     -25.222  40.784   5.553  0.00  0.00    +0.000 C 
BRANCH   3   5
ATOM      5  O1  UNL     1     -24.542  41.950   3.604  0.00  0.00    +0.000 OA
ATOM      6  H12 UNL     1     -24.843  42.331   2.714  0.00  0.00    +0.000 HD
ENDBRANCH   3   5
ENDBRANCH   1   4
BRANCH   1   7
ATOM      7  S1  UNL     1     -24.521  38.191   4.976  0.00  0.00    +0.000 S 
BRANCH   7   8
ATOM      8  S2  UNL     1     -23.670  38.355   3.020  0.00  0.00    +0.000 S 
BRANCH   8   9
ATOM      9  C5  UNL     1     -25.280  38.495   2.178  0.00  0.00    +0.000 C 
BRANCH   9  10
ATOM     10  C6  UNL     1     -26.358  37.875   3.020  0.00  0.00    +0.000 C 
ATOM     11  C7  UNL     1     -27.183  36.942   2.538  0.00  0.00    +0.000 C 
ENDBRANCH   9  10
ENDBRANCH   8   9
ENDBRANCH   7   8
ENDBRANCH   1   7
TORSDOF 6
ENDMDL
MODEL 3
REMARK VINA RESULT:      -3.1      1.898      2.274
REMARK  Name = .\Allicin.pdb
REMARK  7 active torsions:
REMARK  status: ('A' for Active; 'I' for Inactive)
REMARK    1  A    between atoms: C1_1  and  C2_2
REMARK    2  A    between atoms: C2_2  and  O1_10
REMARK    3  A    between atoms: C3_3  and  C4_4
REMARK    4  A    between atoms: C4_4  and  S1_5
REMARK    5  A    between atoms: S1_5  and  S2_6
REMARK    6  A    between atoms: S2_6  and  C5_7
REMARK    7  A    between atoms: C5_7  and  C6_8
REMARK                            x       y       z     vdW  Elec       q    Type
REMARK                         _______ _______ _______ _____ _____    ______ ____
ROOT
ATOM      1  C4  UNL     1     -22.988  38.020   5.389  0.00  0.00    +0.000 C 
ENDROOT
BRANCH   1   4
ATOM      2  C1  UNL     1     -24.181  38.057   1.710  0.00  0.00    +0.000 C 
ATOM      3  C2  UNL     1     -23.490  38.441   2.985  0.00  0.00    +0.000 C 
ATOM      4  C3  UNL     1     -23.660  37.698   4.085  0.00  0.00    +0.000 C 
BRANCH   3   5
ATOM      5  O1  UNL     1     -22.659  39.561   3.016  0.00  0.00    +0.000 OA
ATOM      6  H12 UNL     1     -22.486  40.070   3.875  0.00  0.00    +0.000 HD
ENDBRANCH   3   5
ENDBRANCH   1   4
BRANCH   1   7
ATOM      7  S1  UNL     1     -24.206  38.559   6.637  0.00  0.00    +0.000 S 
BRANCH   7   8
ATOM      8  S2  UNL     1     -23.472  40.566   6.729  0.00  0.00    +0.000 S 
BRANCH   8   9
ATOM      9  C5  UNL     1     -25.041  41.315   6.182  0.00  0.00    +0.000 C 
BRANCH   9  10
ATOM     10  C6  UNL     1     -25.079  41.393   4.683  0.00  0.00    +0.000 C 
ATOM     11  C7  UNL     1     -25.897  42.231   4.039  0.00  0.00    +0.000 C 
ENDBRANCH   9  10
ENDBRANCH   8   9
ENDBRANCH   7   8
ENDBRANCH   1   7
TORSDOF 6
ENDMDL
MODEL 4
REMARK VINA RESULT:      -2.9      1.811      5.085
REMARK  Name = .\Allicin.pdb
REMARK  7 active torsions:
REMARK  status: ('A' for Active; 'I' for Inactive)
REMARK    1  A    between atoms: C1_1  and  C2_2
REMARK    2  A    between atoms: C2_2  and  O1_10
REMARK    3  A    between atoms: C3_3  and  C4_4
REMARK    4  A    between atoms: C4_4  and  S1_5
REMARK    5  A    between atoms: S1_5  and  S2_6
REMARK    6  A    between atoms: S2_6  and  C5_7
REMARK    7  A    between atoms: C5_7  and  C6_8
REMARK                            x       y       z     vdW  Elec       q    Type
REMARK                         _______ _______ _______ _____ _____    ______ ____
ROOT
ATOM      1  C4  UNL     1     -23.718  39.643   4.531  0.00  0.00    +0.000 C 
ENDROOT
BRANCH   1   4
ATOM      2  C1  UNL     1     -26.484  42.224   5.332  0.00  0.00    +0.000 C 
ATOM      3  C2  UNL     1     -25.306  41.556   4.686  0.00  0.00    +0.000 C 
ATOM      4  C3  UNL     1     -24.882  40.369   5.139  0.00  0.00    +0.000 C 
BRANCH   3   5
ATOM      5  O1  UNL     1     -24.667  42.164   3.607  0.00  0.00    +0.000 OA
ATOM      6  H12 UNL     1     -24.871  41.899   2.650  0.00  0.00    +0.000 HD
ENDBRANCH   3   5
ENDBRANCH   1   4
BRANCH   1   7
ATOM      7  S1  UNL     1     -24.102  37.874   4.297  0.00  0.00    +0.000 S 
BRANCH   7   8
ATOM      8  S2  UNL     1     -25.691  38.230   2.910  0.00  0.00    +0.000 S 
BRANCH   8   9
ATOM      9  C5  UNL     1     -25.238  36.843   1.818  0.00  0.00    +0.000 C 
BRANCH   9  10
ATOM     10  C6  UNL     1     -23.833  37.017   1.319  0.00  0.00    +0.000 C 
ATOM     11  C7  UNL     1     -23.142  36.007   0.782  0.00  0.00    +0.000 C 
ENDBRANCH   9  10
ENDBRANCH   8   9
ENDBRANCH   7   8
ENDBRANCH   1   7
TORSDOF 6
ENDMDL
MODEL 5
REMARK VINA RESULT:      -2.8      2.025      2.597
REMARK  Name = .\Allicin.pdb
REMARK  7 active torsions:
REMARK  status: ('A' for Active; 'I' for Inactive)
REMARK    1  A    between atoms: C1_1  and  C2_2
REMARK    2  A    between atoms: C2_2  and  O1_10
REMARK    3  A    between atoms: C3_3  and  C4_4
REMARK    4  A    between atoms: C4_4  and  S1_5
REMARK    5  A    between atoms: S1_5  and  S2_6
REMARK    6  A    between atoms: S2_6  and  C5_7
REMARK    7  A    between atoms: C5_7  and  C6_8
REMARK                            x       y       z     vdW  Elec       q    Type
REMARK                         _______ _______ _______ _____ _____    ______ ____
ROOT
ATOM      1  C4  UNL     1     -25.599  39.892   3.667  0.00  0.00    +0.000 C 
ENDROOT
BRANCH   1   4
ATOM      2  C1  UNL     1     -23.114  37.063   2.787  0.00  0.00    +0.000 C 
ATOM      3  C2  UNL     1     -24.083  38.198   2.646  0.00  0.00    +0.000 C 
ATOM      4  C3  UNL     1     -24.631  38.746   3.738  0.00  0.00    +0.000 C 
BRANCH   3   5
ATOM      5  O1  UNL     1     -24.399  38.691   1.380  0.00  0.00    +0.000 OA
ATOM      6  H12 UNL     1     -23.853  39.425   0.945  0.00  0.00    +0.000 HD
ENDBRANCH   3   5
ENDBRANCH   1   4
BRANCH   1   7
ATOM      7  S1  UNL     1     -25.005  41.310   4.652  0.00  0.00    +0.000 S 
BRANCH   7   8
ATOM      8  S2  UNL     1     -25.337  40.355   6.537  0.00  0.00    +0.000 S 
BRANCH   8   9
ATOM      9  C5  UNL     1     -26.418  41.675   7.175  0.00  0.00    +0.000 C 
BRANCH   9  10
ATOM     10  C6  UNL     1     -27.114  42.366   6.038  0.00  0.00    +0.000 C 
ATOM     11  C7  UNL     1     -28.162  43.173   6.235  0.00  0.00    +0.000 C 
ENDBRANCH   9  10
ENDBRANCH   8   9
ENDBRANCH   7   8
ENDBRANCH   1   7
TORSDOF 6
ENDMDL
MODEL 6
REMARK VINA RESULT:      -2.8      1.981      4.750
REMARK  Name = .\Allicin.pdb
REMARK  7 active torsions:
REMARK  status: ('A' for Active; 'I' for Inactive)
REMARK    1  A    between atoms: C1_1  and  C2_2
REMARK    2  A    between atoms: C2_2  and  O1_10
REMARK    3  A    between atoms: C3_3  and  C4_4
REMARK    4  A    between atoms: C4_4  and  S1_5
REMARK    5  A    between atoms: S1_5  and  S2_6
REMARK    6  A    between atoms: S2_6  and  C5_7
REMARK    7  A    between atoms: C5_7  and  C6_8
REMARK                            x       y       z     vdW  Elec       q    Type
REMARK                         _______ _______ _______ _____ _____    ______ ____
ROOT
ATOM      1  C4  UNL     1     -25.905  38.088   3.683  0.00  0.00    +0.000 C 
ENDROOT
BRANCH   1   4
ATOM      2  C1  UNL     1     -25.460  41.910   4.064  0.00  0.00    +0.000 C 
ATOM      3  C2  UNL     1     -25.681  40.464   4.396  0.00  0.00    +0.000 C 
ATOM      4  C3  UNL     1     -25.700  39.551   3.417  0.00  0.00    +0.000 C 
BRANCH   3   5
ATOM      5  O1  UNL     1     -25.850  40.073   5.724  0.00  0.00    +0.000 OA
ATOM      6  H12 UNL     1     -26.465  40.577   6.352  0.00  0.00    +0.000 HD
ENDBRANCH   3   5
ENDBRANCH   1   4
BRANCH   1   7
ATOM      7  S1  UNL     1     -24.326  37.178   3.581  0.00  0.00    +0.000 S 
BRANCH   7   8
ATOM      8  S2  UNL     1     -24.807  36.216   1.732  0.00  0.00    +0.000 S 
BRANCH   8   9
ATOM      9  C5  UNL     1     -23.212  36.614   0.946  0.00  0.00    +0.000 C 
BRANCH   9  10
ATOM     10  C6  UNL     1     -22.662  37.890   1.517  0.00  0.00    +0.000 C 
ATOM     11  C7  UNL     1     -21.930  38.734   0.783  0.00  0.00    +0.000 C 
ENDBRANCH   9  10
ENDBRANCH   8   9
ENDBRANCH   7   8
ENDBRANCH   1   7
TORSDOF 6
ENDMDL
MODEL 7
REMARK VINA RESULT:      -2.7      2.795      3.744
REMARK  Name = .\Allicin.pdb
REMARK  7 active torsions:
REMARK  status: ('A' for Active; 'I' for Inactive)
REMARK    1  A    between atoms: C1_1  and  C2_2
REMARK    2  A    between atoms: C2_2  and  O1_10
REMARK    3  A    between atoms: C3_3  and  C4_4
REMARK    4  A    between atoms: C4_4  and  S1_5
REMARK    5  A    between atoms: S1_5  and  S2_6
REMARK    6  A    between atoms: S2_6  and  C5_7
REMARK    7  A    between atoms: C5_7  and  C6_8
REMARK                            x       y       z     vdW  Elec       q    Type
REMARK                         _______ _______ _______ _____ _____    ______ ____
ROOT
ATOM      1  C4  UNL     1     -24.565  40.056   4.000  0.00  0.00    +0.000 C 
ENDROOT
BRANCH   1   4
ATOM      2  C1  UNL     1     -26.846  37.428   2.311  0.00  0.00    +0.000 C 
ATOM      3  C2  UNL     1     -25.815  38.501   2.508  0.00  0.00    +0.000 C 
ATOM      4  C3  UNL     1     -25.589  38.991   3.733  0.00  0.00    +0.000 C 
BRANCH   3   5
ATOM      5  O1  UNL     1     -25.085  38.973   1.417  0.00  0.00    +0.000 OA
ATOM      6  H12 UNL     1     -24.190  39.431   1.537  0.00  0.00    +0.000 HD
ENDBRANCH   3   5
ENDBRANCH   1   4
BRANCH   1   7
ATOM      7  S1  UNL     1     -25.337  41.535   4.741  0.00  0.00    +0.000 S 
BRANCH   7   8
ATOM      8  S2  UNL     1     -24.379  41.290   6.638  0.00  0.00    +0.000 S 
BRANCH   8   9
ATOM      9  C5  UNL     1     -25.897  40.755   7.493  0.00  0.00    +0.000 C 
BRANCH   9  10
ATOM     10  C6  UNL     1     -25.972  39.255   7.519  0.00  0.00    +0.000 C 
ATOM     11  C7  UNL     1     -24.880  38.491   7.419  0.00  0.00    +0.000 C 
ENDBRANCH   9  10
ENDBRANCH   8   9
ENDBRANCH   7   8
ENDBRANCH   1   7
TORSDOF 6
ENDMDL
MODEL 8
REMARK VINA RESULT:      -2.7      2.660      3.409
REMARK  Name = .\Allicin.pdb
REMARK  7 active torsions:
REMARK  status: ('A' for Active; 'I' for Inactive)
REMARK    1  A    between atoms: C1_1  and  C2_2
REMARK    2  A    between atoms: C2_2  and  O1_10
REMARK    3  A    between atoms: C3_3  and  C4_4
REMARK    4  A    between atoms: C4_4  and  S1_5
REMARK    5  A    between atoms: S1_5  and  S2_6
REMARK    6  A    between atoms: S2_6  and  C5_7
REMARK    7  A    between atoms: C5_7  and  C6_8
REMARK                            x       y       z     vdW  Elec       q    Type
REMARK                         _______ _______ _______ _____ _____    ______ ____
ROOT
ATOM      1  C4  UNL     1     -23.826  39.163   3.887  0.00  0.00    +0.000 C 
ENDROOT
BRANCH   1   4
ATOM      2  C1  UNL     1     -26.878  37.308   2.404  0.00  0.00    +0.000 C 
ATOM      3  C2  UNL     1     -25.842  38.362   2.662  0.00  0.00    +0.000 C 
ATOM      4  C3  UNL     1     -24.898  38.156   3.589  0.00  0.00    +0.000 C 
BRANCH   3   5
ATOM      5  O1  UNL     1     -25.854  39.546   1.924  0.00  0.00    +0.000 OA
ATOM      6  H12 UNL     1     -25.019  39.897   1.471  0.00  0.00    +0.000 HD
ENDBRANCH   3   5
ENDBRANCH   1   4
BRANCH   1   7
ATOM      7  S1  UNL     1     -23.289  39.051   5.628  0.00  0.00    +0.000 S 
BRANCH   7   8
ATOM      8  S2  UNL     1     -25.210  39.552   6.427  0.00  0.00    +0.000 S 
BRANCH   8   9
ATOM      9  C5  UNL     1     -24.759  41.276   6.806  0.00  0.00    +0.000 C 
BRANCH   9  10
ATOM     10  C6  UNL     1     -23.332  41.346   7.267  0.00  0.00    +0.000 C 
ATOM     11  C7  UNL     1     -22.897  42.316   8.077  0.00  0.00    +0.000 C 
ENDBRANCH   9  10
ENDBRANCH   8   9
ENDBRANCH   7   8
ENDBRANCH   1   7
TORSDOF 6
ENDMDL
MODEL 9
REMARK VINA RESULT:      -2.6      2.730      4.704
REMARK  Name = .\Allicin.pdb
REMARK  7 active torsions:
REMARK  status: ('A' for Active; 'I' for Inactive)
REMARK    1  A    between atoms: C1_1  and  C2_2
REMARK    2  A    between atoms: C2_2  and  O1_10
REMARK    3  A    between atoms: C3_3  and  C4_4
REMARK    4  A    between atoms: C4_4  and  S1_5
REMARK    5  A    between atoms: S1_5  and  S2_6
REMARK    6  A    between atoms: S2_6  and  C5_7
REMARK    7  A    between atoms: C5_7  and  C6_8
REMARK                            x       y       z     vdW  Elec       q    Type
REMARK                         _______ _______ _______ _____ _____    ______ ____
ROOT
ATOM      1  C4  UNL     1     -23.688  39.591   4.030  0.00  0.00    +0.000 C 
ENDROOT
BRANCH   1   4
ATOM      2  C1  UNL     1     -26.473  42.012   5.188  0.00  0.00    +0.000 C 
ATOM      3  C2  UNL     1     -25.275  41.460   4.473  0.00  0.00    +0.000 C 
ATOM      4  C3  UNL     1     -24.870  40.208   4.720  0.00  0.00    +0.000 C 
BRANCH   3   5
ATOM      5  O1  UNL     1     -24.597  42.246   3.541  0.00  0.00    +0.000 OA
ATOM      6  H12 UNL     1     -25.093  42.774   2.832  0.00  0.00    +0.000 HD
ENDBRANCH   3   5
ENDBRANCH   1   4
BRANCH   1   7
ATOM      7  S1  UNL     1     -24.197  38.166   3.010  0.00  0.00    +0.000 S 
BRANCH   7   8
ATOM      8  S2  UNL     1     -25.949  37.751   4.165  0.00  0.00    +0.000 S 
BRANCH   8   9
ATOM      9  C5  UNL     1     -25.228  36.299   4.998  0.00  0.00    +0.000 C 
BRANCH   9  10
ATOM     10  C6  UNL     1     -24.830  36.655   6.401  0.00  0.00    +0.000 C 
ATOM     11  C7  UNL     1     -23.587  37.035   6.710  0.00  0.00    +0.000 C 
ENDBRANCH   9  10
ENDBRANCH   8   9
ENDBRANCH   7   8
ENDBRANCH   1   7
TORSDOF 6
ENDMDL
