MODEL 1
REMARK VINA RESULT:      -3.4      0.000      0.000
REMARK  Name = .\Allicin.pdb
REMARK  7 active torsions:
REMARK  status: ('A' for Active; 'I' for Inactive)
REMARK    1  A    between atoms: C1_1  and  C2_2
REMARK    2  A    between atoms: C2_2  and  O1_10
REMARK    3  A    between atoms: C3_3  and  C4_4
REMARK    4  A    between atoms: C4_4  and  S1_5
REMARK    5  A    between atoms: S1_5  and  S2_6
REMARK    6  A    between atoms: S2_6  and  C5_7
REMARK    7  A    between atoms: C5_7  and  C6_8
REMARK                            x       y       z     vdW  Elec       q    Type
REMARK                         _______ _______ _______ _____ _____    ______ ____
ROOT
ATOM      1  C4  UNL     1     -10.646  36.239  20.350  0.00  0.00    +0.000 C 
ENDROOT
BRANCH   1   4
ATOM      2  C1  UNL     1      -7.613  37.519  18.321  0.00  0.00    +0.000 C 
ATOM      3  C2  UNL     1      -8.573  36.600  19.016  0.00  0.00    +0.000 C 
ATOM      4  C3  UNL     1      -9.641  37.104  19.647  0.00  0.00    +0.000 C 
BRANCH   3   5
ATOM      5  O1  UNL     1      -8.360  35.222  18.989  0.00  0.00    +0.000 OA
ATOM      6  H12 UNL     1      -7.451  34.821  19.189  0.00  0.00    +0.000 HD
ENDBRANCH   3   5
ENDBRANCH   1   4
BRANCH   1   7
ATOM      7  S1  UNL     1     -10.940  36.829  22.052  0.00  0.00    +0.000 S 
BRANCH   7   8
ATOM      8  S2  UNL     1      -9.504  35.512  22.935  0.00  0.00    +0.000 S 
BRANCH   8   9
ATOM      9  C5  UNL     1      -8.153  36.734  22.903  0.00  0.00    +0.000 C 
BRANCH   9  10
ATOM     10  C6  UNL     1      -6.917  36.120  22.312  0.00  0.00    +0.000 C 
ATOM     11  C7  UNL     1      -5.967  36.861  21.733  0.00  0.00    +0.000 C 
ENDBRANCH   9  10
ENDBRANCH   8   9
ENDBRANCH   7   8
ENDBRANCH   1   7
TORSDOF 6
ENDMDL
MODEL 2
REMARK VINA RESULT:      -3.3      1.807      2.046
REMARK  Name = .\Allicin.pdb
REMARK  7 active torsions:
REMARK  status: ('A' for Active; 'I' for Inactive)
REMARK    1  A    between atoms: C1_1  and  C2_2
REMARK    2  A    between atoms: C2_2  and  O1_10
REMARK    3  A    between atoms: C3_3  and  C4_4
REMARK    4  A    between atoms: C4_4  and  S1_5
REMARK    5  A    between atoms: S1_5  and  S2_6
REMARK    6  A    between atoms: S2_6  and  C5_7
REMARK    7  A    between atoms: C5_7  and  C6_8
REMARK                            x       y       z     vdW  Elec       q    Type
REMARK                         _______ _______ _______ _____ _____    ______ ____
ROOT
ATOM      1  C4  UNL     1      -8.708  36.366  19.346  0.00  0.00    +0.000 C 
ENDROOT
BRANCH   1   4
ATOM      2  C1  UNL     1      -9.579  39.656  17.510  0.00  0.00    +0.000 C 
ATOM      3  C2  UNL     1      -9.264  38.212  17.769  0.00  0.00    +0.000 C 
ATOM      4  C3  UNL     1      -9.019  37.798  19.018  0.00  0.00    +0.000 C 
BRANCH   3   5
ATOM      5  O1  UNL     1      -9.242  37.304  16.711  0.00  0.00    +0.000 OA
ATOM      6  H12 UNL     1      -8.588  37.400  15.942  0.00  0.00    +0.000 HD
ENDBRANCH   3   5
ENDBRANCH   1   4
BRANCH   1   7
ATOM      7  S1  UNL     1      -9.848  35.725  20.620  0.00  0.00    +0.000 S 
BRANCH   7   8
ATOM      8  S2  UNL     1      -8.795  36.621  22.252  0.00  0.00    +0.000 S 
BRANCH   8   9
ATOM      9  C5  UNL     1      -7.236  35.741  21.913  0.00  0.00    +0.000 C 
BRANCH   9  10
ATOM     10  C6  UNL     1      -6.085  36.704  21.934  0.00  0.00    +0.000 C 
ATOM     11  C7  UNL     1      -5.457  37.080  20.815  0.00  0.00    +0.000 C 
ENDBRANCH   9  10
ENDBRANCH   8   9
ENDBRANCH   7   8
ENDBRANCH   1   7
TORSDOF 6
ENDMDL
MODEL 3
REMARK VINA RESULT:      -3.2      1.201      3.284
REMARK  Name = .\Allicin.pdb
REMARK  7 active torsions:
REMARK  status: ('A' for Active; 'I' for Inactive)
REMARK    1  A    between atoms: C1_1  and  C2_2
REMARK    2  A    between atoms: C2_2  and  O1_10
REMARK    3  A    between atoms: C3_3  and  C4_4
REMARK    4  A    between atoms: C4_4  and  S1_5
REMARK    5  A    between atoms: S1_5  and  S2_6
REMARK    6  A    between atoms: S2_6  and  C5_7
REMARK    7  A    between atoms: C5_7  and  C6_8
REMARK                            x       y       z     vdW  Elec       q    Type
REMARK                         _______ _______ _______ _____ _____    ______ ____
ROOT
ATOM      1  C4  UNL     1      -9.085  35.952  22.792  0.00  0.00    +0.000 C 
ENDROOT
BRANCH   1   4
ATOM      2  C1  UNL     1      -5.546  36.877  21.536  0.00  0.00    +0.000 C 
ATOM      3  C2  UNL     1      -6.847  36.152  21.715  0.00  0.00    +0.000 C 
ATOM      4  C3  UNL     1      -7.760  36.623  22.575  0.00  0.00    +0.000 C 
BRANCH   3   5
ATOM      5  O1  UNL     1      -7.109  35.000  20.975  0.00  0.00    +0.000 OA
ATOM      6  H12 UNL     1      -7.345  34.122  21.424  0.00  0.00    +0.000 HD
ENDBRANCH   3   5
ENDBRANCH   1   4
BRANCH   1   7
ATOM      7  S1  UNL     1     -10.460  37.047  22.299  0.00  0.00    +0.000 S 
BRANCH   7   8
ATOM      8  S2  UNL     1     -10.634  36.222  20.333  0.00  0.00    +0.000 S 
BRANCH   8   9
ATOM      9  C5  UNL     1      -9.728  37.584  19.529  0.00  0.00    +0.000 C 
BRANCH   9  10
ATOM     10  C6  UNL     1      -8.712  37.031  18.572  0.00  0.00    +0.000 C 
ATOM     11  C7  UNL     1      -7.542  37.640  18.353  0.00  0.00    +0.000 C 
ENDBRANCH   9  10
ENDBRANCH   8   9
ENDBRANCH   7   8
ENDBRANCH   1   7
TORSDOF 6
ENDMDL
MODEL 4
REMARK VINA RESULT:      -3.0      1.730      2.099
REMARK  Name = .\Allicin.pdb
REMARK  7 active torsions:
REMARK  status: ('A' for Active; 'I' for Inactive)
REMARK    1  A    between atoms: C1_1  and  C2_2
REMARK    2  A    between atoms: C2_2  and  O1_10
REMARK    3  A    between atoms: C3_3  and  C4_4
REMARK    4  A    between atoms: C4_4  and  S1_5
REMARK    5  A    between atoms: S1_5  and  S2_6
REMARK    6  A    between atoms: S2_6  and  C5_7
REMARK    7  A    between atoms: C5_7  and  C6_8
REMARK                            x       y       z     vdW  Elec       q    Type
REMARK                         _______ _______ _______ _____ _____    ______ ____
ROOT
ATOM      1  C4  UNL     1      -9.737  36.841  18.606  0.00  0.00    +0.000 C 
ENDROOT
BRANCH   1   4
ATOM      2  C1  UNL     1      -6.006  37.271  19.531  0.00  0.00    +0.000 C 
ATOM      3  C2  UNL     1      -7.321  37.411  18.823  0.00  0.00    +0.000 C 
ATOM      4  C3  UNL     1      -8.390  36.735  19.262  0.00  0.00    +0.000 C 
BRANCH   3   5
ATOM      5  O1  UNL     1      -7.430  38.258  17.719  0.00  0.00    +0.000 OA
ATOM      6  H12 UNL     1      -6.645  38.428  17.101  0.00  0.00    +0.000 HD
ENDBRANCH   3   5
ENDBRANCH   1   4
BRANCH   1   7
ATOM      7  S1  UNL     1     -11.076  36.707  19.839  0.00  0.00    +0.000 S 
BRANCH   7   8
ATOM      8  S2  UNL     1      -9.922  35.541  21.212  0.00  0.00    +0.000 S 
BRANCH   8   9
ATOM      9  C5  UNL     1      -9.991  36.783  22.543  0.00  0.00    +0.000 C 
BRANCH   9  10
ATOM     10  C6  UNL     1      -8.602  37.139  22.989  0.00  0.00    +0.000 C 
ATOM     11  C7  UNL     1      -7.566  36.317  22.797  0.00  0.00    +0.000 C 
ENDBRANCH   9  10
ENDBRANCH   8   9
ENDBRANCH   7   8
ENDBRANCH   1   7
TORSDOF 6
ENDMDL
MODEL 5
REMARK VINA RESULT:      -3.0      2.735      3.050
REMARK  Name = .\Allicin.pdb
REMARK  7 active torsions:
REMARK  status: ('A' for Active; 'I' for Inactive)
REMARK    1  A    between atoms: C1_1  and  C2_2
REMARK    2  A    between atoms: C2_2  and  O1_10
REMARK    3  A    between atoms: C3_3  and  C4_4
REMARK    4  A    between atoms: C4_4  and  S1_5
REMARK    5  A    between atoms: S1_5  and  S2_6
REMARK    6  A    between atoms: S2_6  and  C5_7
REMARK    7  A    between atoms: C5_7  and  C6_8
REMARK                            x       y       z     vdW  Elec       q    Type
REMARK                         _______ _______ _______ _____ _____    ______ ____
ROOT
ATOM      1  C4  UNL     1      -9.617  37.907  19.070  0.00  0.00    +0.000 C 
ENDROOT
BRANCH   1   4
ATOM      2  C1  UNL     1      -9.708  39.927  15.774  0.00  0.00    +0.000 C 
ATOM      3  C2  UNL     1      -9.691  38.777  16.737  0.00  0.00    +0.000 C 
ATOM      4  C3  UNL     1      -9.626  39.012  18.054  0.00  0.00    +0.000 C 
BRANCH   3   5
ATOM      5  O1  UNL     1      -9.759  37.469  16.260  0.00  0.00    +0.000 OA
ATOM      6  H12 UNL     1      -9.455  36.682  16.822  0.00  0.00    +0.000 HD
ENDBRANCH   3   5
ENDBRANCH   1   4
BRANCH   1   7
ATOM      7  S1  UNL     1      -7.934  37.237  19.293  0.00  0.00    +0.000 S 
BRANCH   7   8
ATOM      8  S2  UNL     1      -8.604  35.373  20.102  0.00  0.00    +0.000 S 
BRANCH   8   9
ATOM      9  C5  UNL     1      -7.777  35.612  21.708  0.00  0.00    +0.000 C 
BRANCH   9  10
ATOM     10  C6  UNL     1      -8.612  36.494  22.591  0.00  0.00    +0.000 C 
ATOM     11  C7  UNL     1      -8.064  37.409  23.397  0.00  0.00    +0.000 C 
ENDBRANCH   9  10
ENDBRANCH   8   9
ENDBRANCH   7   8
ENDBRANCH   1   7
TORSDOF 6
ENDMDL
MODEL 6
REMARK VINA RESULT:      -2.9      3.180      5.087
REMARK  Name = .\Allicin.pdb
REMARK  7 active torsions:
REMARK  status: ('A' for Active; 'I' for Inactive)
REMARK    1  A    between atoms: C1_1  and  C2_2
REMARK    2  A    between atoms: C2_2  and  O1_10
REMARK    3  A    between atoms: C3_3  and  C4_4
REMARK    4  A    between atoms: C4_4  and  S1_5
REMARK    5  A    between atoms: S1_5  and  S2_6
REMARK    6  A    between atoms: S2_6  and  C5_7
REMARK    7  A    between atoms: C5_7  and  C6_8
REMARK                            x       y       z     vdW  Elec       q    Type
REMARK                         _______ _______ _______ _____ _____    ______ ____
ROOT
ATOM      1  C4  UNL     1      -8.560  36.227  19.471  0.00  0.00    +0.000 C 
ENDROOT
BRANCH   1   4
ATOM      2  C1  UNL     1      -5.457  37.005  21.644  0.00  0.00    +0.000 C 
ATOM      3  C2  UNL     1      -6.357  36.849  20.454  0.00  0.00    +0.000 C 
ATOM      4  C3  UNL     1      -7.606  36.395  20.618  0.00  0.00    +0.000 C 
BRANCH   3   5
ATOM      5  O1  UNL     1      -5.896  37.192  19.183  0.00  0.00    +0.000 OA
ATOM      6  H12 UNL     1      -6.462  37.734  18.542  0.00  0.00    +0.000 HD
ENDBRANCH   3   5
ENDBRANCH   1   4
BRANCH   1   7
ATOM      7  S1  UNL     1      -9.815  37.553  19.466  0.00  0.00    +0.000 S 
BRANCH   7   8
ATOM      8  S2  UNL     1      -9.063  38.487  17.695  0.00  0.00    +0.000 S 
BRANCH   8   9
ATOM      9  C5  UNL     1     -10.180  39.922  17.807  0.00  0.00    +0.000 C 
BRANCH   9  10
ATOM     10  C6  UNL     1     -10.040  40.781  16.584  0.00  0.00    +0.000 C 
ATOM     11  C7  UNL     1      -9.684  40.273  15.400  0.00  0.00    +0.000 C 
ENDBRANCH   9  10
ENDBRANCH   8   9
ENDBRANCH   7   8
ENDBRANCH   1   7
TORSDOF 6
ENDMDL
MODEL 7
REMARK VINA RESULT:      -2.9      2.673      4.441
REMARK  Name = .\Allicin.pdb
REMARK  7 active torsions:
REMARK  status: ('A' for Active; 'I' for Inactive)
REMARK    1  A    between atoms: C1_1  and  C2_2
REMARK    2  A    between atoms: C2_2  and  O1_10
REMARK    3  A    between atoms: C3_3  and  C4_4
REMARK    4  A    between atoms: C4_4  and  S1_5
REMARK    5  A    between atoms: S1_5  and  S2_6
REMARK    6  A    between atoms: S2_6  and  C5_7
REMARK    7  A    between atoms: C5_7  and  C6_8
REMARK                            x       y       z     vdW  Elec       q    Type
REMARK                         _______ _______ _______ _____ _____    ______ ____
ROOT
ATOM      1  C4  UNL     1     -10.050  36.930  21.751  0.00  0.00    +0.000 C 
ENDROOT
BRANCH   1   4
ATOM      2  C1  UNL     1      -6.236  36.750  22.369  0.00  0.00    +0.000 C 
ATOM      3  C2  UNL     1      -7.706  36.947  22.595  0.00  0.00    +0.000 C 
ATOM      4  C3  UNL     1      -8.567  36.761  21.587  0.00  0.00    +0.000 C 
BRANCH   3   5
ATOM      5  O1  UNL     1      -8.173  37.309  23.859  0.00  0.00    +0.000 OA
ATOM      6  H12 UNL     1      -9.157  37.259  24.095  0.00  0.00    +0.000 HD
ENDBRANCH   3   5
ENDBRANCH   1   4
BRANCH   1   7
ATOM      7  S1  UNL     1     -10.880  37.020  20.128  0.00  0.00    +0.000 S 
BRANCH   7   8
ATOM      8  S2  UNL     1      -9.101  36.625  19.008  0.00  0.00    +0.000 S 
BRANCH   8   9
ATOM      9  C5  UNL     1      -9.625  37.603  17.562  0.00  0.00    +0.000 C 
BRANCH   9  10
ATOM     10  C6  UNL     1      -9.184  39.030  17.718  0.00  0.00    +0.000 C 
ATOM     11  C7  UNL     1     -10.061  40.032  17.837  0.00  0.00    +0.000 C 
ENDBRANCH   9  10
ENDBRANCH   8   9
ENDBRANCH   7   8
ENDBRANCH   1   7
TORSDOF 6
ENDMDL
MODEL 8
REMARK VINA RESULT:      -2.8      2.963      3.413
REMARK  Name = .\Allicin.pdb
REMARK  7 active torsions:
REMARK  status: ('A' for Active; 'I' for Inactive)
REMARK    1  A    between atoms: C1_1  and  C2_2
REMARK    2  A    between atoms: C2_2  and  O1_10
REMARK    3  A    between atoms: C3_3  and  C4_4
REMARK    4  A    between atoms: C4_4  and  S1_5
REMARK    5  A    between atoms: S1_5  and  S2_6
REMARK    6  A    between atoms: S2_6  and  C5_7
REMARK    7  A    between atoms: C5_7  and  C6_8
REMARK                            x       y       z     vdW  Elec       q    Type
REMARK                         _______ _______ _______ _____ _____    ______ ____
ROOT
ATOM      1  C4  UNL     1      -8.921  37.767  19.039  0.00  0.00    +0.000 C 
ENDROOT
BRANCH   1   4
ATOM      2  C1  UNL     1      -9.861  39.946  15.985  0.00  0.00    +0.000 C 
ATOM      3  C2  UNL     1      -9.557  38.751  16.840  0.00  0.00    +0.000 C 
ATOM      4  C3  UNL     1      -9.224  38.920  18.126  0.00  0.00    +0.000 C 
BRANCH   3   5
ATOM      5  O1  UNL     1      -9.638  37.469  16.298  0.00  0.00    +0.000 OA
ATOM      6  H12 UNL     1      -9.963  36.681  16.846  0.00  0.00    +0.000 HD
ENDBRANCH   3   5
ENDBRANCH   1   4
BRANCH   1   7
ATOM      7  S1  UNL     1      -7.153  37.320  18.960  0.00  0.00    +0.000 S 
BRANCH   7   8
ATOM      8  S2  UNL     1      -7.088  36.548  20.954  0.00  0.00    +0.000 S 
BRANCH   8   9
ATOM      9  C5  UNL     1      -8.873  36.767  21.248  0.00  0.00    +0.000 C 
BRANCH   9  10
ATOM     10  C6  UNL     1      -9.188  36.546  22.699  0.00  0.00    +0.000 C 
ATOM     11  C7  UNL     1      -9.907  35.499  23.116  0.00  0.00    +0.000 C 
ENDBRANCH   9  10
ENDBRANCH   8   9
ENDBRANCH   7   8
ENDBRANCH   1   7
TORSDOF 6
ENDMDL
MODEL 9
REMARK VINA RESULT:      -2.8      3.298      5.051
REMARK  Name = .\Allicin.pdb
REMARK  7 active torsions:
REMARK  status: ('A' for Active; 'I' for Inactive)
REMARK    1  A    between atoms: C1_1  and  C2_2
REMARK    2  A    between atoms: C2_2  and  O1_10
REMARK    3  A    between atoms: C3_3  and  C4_4
REMARK    4  A    between atoms: C4_4  and  S1_5
REMARK    5  A    between atoms: S1_5  and  S2_6
REMARK    6  A    between atoms: S2_6  and  C5_7
REMARK    7  A    between atoms: C5_7  and  C6_8
REMARK                            x       y       z     vdW  Elec       q    Type
REMARK                         _______ _______ _______ _____ _____    ______ ____
ROOT
ATOM      1  C4  UNL     1     -10.115  37.323  18.001  0.00  0.00    +0.000 C 
ENDROOT
BRANCH   1   4
ATOM      2  C1  UNL     1      -6.659  37.191  19.732  0.00  0.00    +0.000 C 
ATOM      3  C2  UNL     1      -7.747  37.513  18.750  0.00  0.00    +0.000 C 
ATOM      4  C3  UNL     1      -8.981  37.029  18.939  0.00  0.00    +0.000 C 
BRANCH   3   5
ATOM      5  O1  UNL     1      -7.473  38.329  17.652  0.00  0.00    +0.000 OA
ATOM      6  H12 UNL     1      -7.864  39.260  17.572  0.00  0.00    +0.000 HD
ENDBRANCH   3   5
ENDBRANCH   1   4
BRANCH   1   7
ATOM      7  S1  UNL     1     -11.660  37.637  18.922  0.00  0.00    +0.000 S 
BRANCH   7   8
ATOM      8  S2  UNL     1     -12.188  39.365  17.777  0.00  0.00    +0.000 S 
BRANCH   8   9
ATOM      9  C5  UNL     1     -10.551  40.148  17.941  0.00  0.00    +0.000 C 
BRANCH   9  10
ATOM     10  C6  UNL     1     -10.171  40.823  16.655  0.00  0.00    +0.000 C 
ATOM     11  C7  UNL     1      -9.868  40.128  15.554  0.00  0.00    +0.000 C 
ENDBRANCH   9  10
ENDBRANCH   8   9
ENDBRANCH   7   8
ENDBRANCH   1   7
TORSDOF 6
ENDMDL
