MODEL 1
REMARK VINA RESULT:      -3.5      0.000      0.000
REMARK  Name = .\Allicin.pdb
REMARK  7 active torsions:
REMARK  status: ('A' for Active; 'I' for Inactive)
REMARK    1  A    between atoms: C1_1  and  C2_2
REMARK    2  A    between atoms: C2_2  and  O1_10
REMARK    3  A    between atoms: C3_3  and  C4_4
REMARK    4  A    between atoms: C4_4  and  S1_5
REMARK    5  A    between atoms: S1_5  and  S2_6
REMARK    6  A    between atoms: S2_6  and  C5_7
REMARK    7  A    between atoms: C5_7  and  C6_8
REMARK                            x       y       z     vdW  Elec       q    Type
REMARK                         _______ _______ _______ _____ _____    ______ ____
ROOT
ATOM      1  C4  UNL     1      -0.083  94.311 115.826  0.00  0.00    +0.000 C 
ENDROOT
BRANCH   1   4
ATOM      2  C1  UNL     1      -2.809  93.102 113.364  0.00  0.00    +0.000 C 
ATOM      3  C2  UNL     1      -1.923  94.000 114.176  0.00  0.00    +0.000 C 
ATOM      4  C3  UNL     1      -1.008  93.469 114.996  0.00  0.00    +0.000 C 
BRANCH   3   5
ATOM      5  O1  UNL     1      -2.044  95.385 114.062  0.00  0.00    +0.000 OA
ATOM      6  H12 UNL     1      -2.937  95.850 114.173  0.00  0.00    +0.000 HD
ENDBRANCH   3   5
ENDBRANCH   1   4
BRANCH   1   7
ATOM      7  S1  UNL     1       0.019  93.679 117.536  0.00  0.00    +0.000 S 
BRANCH   7   8
ATOM      8  S2  UNL     1      -1.478  95.006 118.293  0.00  0.00    +0.000 S 
BRANCH   8   9
ATOM      9  C5  UNL     1      -2.826  93.786 118.162  0.00  0.00    +0.000 C 
BRANCH   9  10
ATOM     10  C6  UNL     1      -3.889  94.290 117.230  0.00  0.00    +0.000 C 
ATOM     11  C7  UNL     1      -5.079  93.690 117.123  0.00  0.00    +0.000 C 
ENDBRANCH   9  10
ENDBRANCH   8   9
ENDBRANCH   7   8
ENDBRANCH   1   7
TORSDOF 6
ENDMDL
MODEL 2
REMARK VINA RESULT:      -3.4      2.215      3.084
REMARK  Name = .\Allicin.pdb
REMARK  7 active torsions:
REMARK  status: ('A' for Active; 'I' for Inactive)
REMARK    1  A    between atoms: C1_1  and  C2_2
REMARK    2  A    between atoms: C2_2  and  O1_10
REMARK    3  A    between atoms: C3_3  and  C4_4
REMARK    4  A    between atoms: C4_4  and  S1_5
REMARK    5  A    between atoms: S1_5  and  S2_6
REMARK    6  A    between atoms: S2_6  and  C5_7
REMARK    7  A    between atoms: C5_7  and  C6_8
REMARK                            x       y       z     vdW  Elec       q    Type
REMARK                         _______ _______ _______ _____ _____    ______ ____
ROOT
ATOM      1  C4  UNL     1      -4.268  93.480 114.921  0.00  0.00    +0.000 C 
ENDROOT
BRANCH   1   4
ATOM      2  C1  UNL     1      -0.769  93.513 113.274  0.00  0.00    +0.000 C 
ATOM      3  C2  UNL     1      -2.204  93.179 113.559  0.00  0.00    +0.000 C 
ATOM      4  C3  UNL     1      -2.832  93.762 114.588  0.00  0.00    +0.000 C 
BRANCH   3   5
ATOM      5  O1  UNL     1      -2.883  92.276 112.743  0.00  0.00    +0.000 OA
ATOM      6  H12 UNL     1      -3.886  92.150 112.811  0.00  0.00    +0.000 HD
ENDBRANCH   3   5
ENDBRANCH   1   4
BRANCH   1   7
ATOM      7  S1  UNL     1      -4.663  94.016 116.620  0.00  0.00    +0.000 S 
BRANCH   7   8
ATOM      8  S2  UNL     1      -3.014  95.372 116.754  0.00  0.00    +0.000 S 
BRANCH   8   9
ATOM      9  C5  UNL     1      -2.459  94.757 118.377  0.00  0.00    +0.000 C 
BRANCH   9  10
ATOM     10  C6  UNL     1      -1.830  93.402 118.227  0.00  0.00    +0.000 C 
ATOM     11  C7  UNL     1      -0.657  93.231 117.610  0.00  0.00    +0.000 C 
ENDBRANCH   9  10
ENDBRANCH   8   9
ENDBRANCH   7   8
ENDBRANCH   1   7
TORSDOF 6
ENDMDL
MODEL 3
REMARK VINA RESULT:      -3.3      1.252      3.383
REMARK  Name = .\Allicin.pdb
REMARK  7 active torsions:
REMARK  status: ('A' for Active; 'I' for Inactive)
REMARK    1  A    between atoms: C1_1  and  C2_2
REMARK    2  A    between atoms: C2_2  and  O1_10
REMARK    3  A    between atoms: C3_3  and  C4_4
REMARK    4  A    between atoms: C4_4  and  S1_5
REMARK    5  A    between atoms: S1_5  and  S2_6
REMARK    6  A    between atoms: S2_6  and  C5_7
REMARK    7  A    between atoms: C5_7  and  C6_8
REMARK                            x       y       z     vdW  Elec       q    Type
REMARK                         _______ _______ _______ _____ _____    ______ ____
ROOT
ATOM      1  C4  UNL     1      -1.550  94.569 118.111  0.00  0.00    +0.000 C 
ENDROOT
BRANCH   1   4
ATOM      2  C1  UNL     1      -5.076  93.761 116.744  0.00  0.00    +0.000 C 
ATOM      3  C2  UNL     1      -3.758  94.444 116.965  0.00  0.00    +0.000 C 
ATOM      4  C3  UNL     1      -2.889  93.942 117.851  0.00  0.00    +0.000 C 
BRANCH   3   5
ATOM      5  O1  UNL     1      -3.437  95.589 116.237  0.00  0.00    +0.000 OA
ATOM      6  H12 UNL     1      -3.319  95.562 115.231  0.00  0.00    +0.000 HD
ENDBRANCH   3   5
ENDBRANCH   1   4
BRANCH   1   7
ATOM      7  S1  UNL     1      -0.198  93.490 117.526  0.00  0.00    +0.000 S 
BRANCH   7   8
ATOM      8  S2  UNL     1      -0.022  94.460 115.628  0.00  0.00    +0.000 S 
BRANCH   8   9
ATOM      9  C5  UNL     1      -0.781  93.088 114.699  0.00  0.00    +0.000 C 
BRANCH   9  10
ATOM     10  C6  UNL     1      -1.827  93.617 113.760  0.00  0.00    +0.000 C 
ATOM     11  C7  UNL     1      -3.014  93.022 113.617  0.00  0.00    +0.000 C 
ENDBRANCH   9  10
ENDBRANCH   8   9
ENDBRANCH   7   8
ENDBRANCH   1   7
TORSDOF 6
ENDMDL
MODEL 4
REMARK VINA RESULT:      -3.3      2.060      2.306
REMARK  Name = .\Allicin.pdb
REMARK  7 active torsions:
REMARK  status: ('A' for Active; 'I' for Inactive)
REMARK    1  A    between atoms: C1_1  and  C2_2
REMARK    2  A    between atoms: C2_2  and  O1_10
REMARK    3  A    between atoms: C3_3  and  C4_4
REMARK    4  A    between atoms: C4_4  and  S1_5
REMARK    5  A    between atoms: S1_5  and  S2_6
REMARK    6  A    between atoms: S2_6  and  C5_7
REMARK    7  A    between atoms: C5_7  and  C6_8
REMARK                            x       y       z     vdW  Elec       q    Type
REMARK                         _______ _______ _______ _____ _____    ______ ____
ROOT
ATOM      1  C4  UNL     1      -2.102  94.037 114.049  0.00  0.00    +0.000 C 
ENDROOT
BRANCH   1   4
ATOM      2  C1  UNL     1      -0.734  90.925 112.204  0.00  0.00    +0.000 C 
ATOM      3  C2  UNL     1      -1.114  92.344 112.512  0.00  0.00    +0.000 C 
ATOM      4  C3  UNL     1      -1.707  92.637 113.676  0.00  0.00    +0.000 C 
BRANCH   3   5
ATOM      5  O1  UNL     1      -0.834  93.354 111.592  0.00  0.00    +0.000 OA
ATOM      6  H12 UNL     1      -0.255  93.185 110.778  0.00  0.00    +0.000 HD
ENDBRANCH   3   5
ENDBRANCH   1   4
BRANCH   1   7
ATOM      7  S1  UNL     1      -0.911  94.759 115.229  0.00  0.00    +0.000 S 
BRANCH   7   8
ATOM      8  S2  UNL     1      -2.415  95.676 116.443  0.00  0.00    +0.000 S 
BRANCH   8   9
ATOM      9  C5  UNL     1      -2.943  94.113 117.217  0.00  0.00    +0.000 C 
BRANCH   9  10
ATOM     10  C6  UNL     1      -4.438  93.990 117.162  0.00  0.00    +0.000 C 
ATOM     11  C7  UNL     1      -5.079  93.653 116.038  0.00  0.00    +0.000 C 
ENDBRANCH   9  10
ENDBRANCH   8   9
ENDBRANCH   7   8
ENDBRANCH   1   7
TORSDOF 6
ENDMDL
MODEL 5
REMARK VINA RESULT:      -3.1      3.225      3.461
REMARK  Name = .\Allicin.pdb
REMARK  7 active torsions:
REMARK  status: ('A' for Active; 'I' for Inactive)
REMARK    1  A    between atoms: C1_1  and  C2_2
REMARK    2  A    between atoms: C2_2  and  O1_10
REMARK    3  A    between atoms: C3_3  and  C4_4
REMARK    4  A    between atoms: C4_4  and  S1_5
REMARK    5  A    between atoms: S1_5  and  S2_6
REMARK    6  A    between atoms: S2_6  and  C5_7
REMARK    7  A    between atoms: C5_7  and  C6_8
REMARK                            x       y       z     vdW  Elec       q    Type
REMARK                         _______ _______ _______ _____ _____    ______ ____
ROOT
ATOM      1  C4  UNL     1      -0.994  92.078 113.738  0.00  0.00    +0.000 C 
ENDROOT
BRANCH   1   4
ATOM      2  C1  UNL     1      -0.506  90.191 110.398  0.00  0.00    +0.000 C 
ATOM      3  C2  UNL     1      -0.600  91.299 111.404  0.00  0.00    +0.000 C 
ATOM      4  C3  UNL     1      -0.896  91.017 112.680  0.00  0.00    +0.000 C 
BRANCH   3   5
ATOM      5  O1  UNL     1      -0.362  92.616 111.013  0.00  0.00    +0.000 OA
ATOM      6  H12 UNL     1       0.546  92.914 110.678  0.00  0.00    +0.000 HD
ENDBRANCH   3   5
ENDBRANCH   1   4
BRANCH   1   7
ATOM      7  S1  UNL     1      -2.565  92.996 113.601  0.00  0.00    +0.000 S 
BRANCH   7   8
ATOM      8  S2  UNL     1      -1.936  94.595 114.875  0.00  0.00    +0.000 S 
BRANCH   8   9
ATOM      9  C5  UNL     1      -2.760  93.927 116.356  0.00  0.00    +0.000 C 
BRANCH   9  10
ATOM     10  C6  UNL     1      -4.246  94.118 116.249  0.00  0.00    +0.000 C 
ATOM     11  C7  UNL     1      -5.080  93.731 117.219  0.00  0.00    +0.000 C 
ENDBRANCH   9  10
ENDBRANCH   8   9
ENDBRANCH   7   8
ENDBRANCH   1   7
TORSDOF 6
ENDMDL
MODEL 6
REMARK VINA RESULT:      -3.0      2.279      2.939
REMARK  Name = .\Allicin.pdb
REMARK  7 active torsions:
REMARK  status: ('A' for Active; 'I' for Inactive)
REMARK    1  A    between atoms: C1_1  and  C2_2
REMARK    2  A    between atoms: C2_2  and  O1_10
REMARK    3  A    between atoms: C3_3  and  C4_4
REMARK    4  A    between atoms: C4_4  and  S1_5
REMARK    5  A    between atoms: S1_5  and  S2_6
REMARK    6  A    between atoms: S2_6  and  C5_7
REMARK    7  A    between atoms: C5_7  and  C6_8
REMARK                            x       y       z     vdW  Elec       q    Type
REMARK                         _______ _______ _______ _____ _____    ______ ____
ROOT
ATOM      1  C4  UNL     1      -2.714  93.447 113.833  0.00  0.00    +0.000 C 
ENDROOT
BRANCH   1   4
ATOM      2  C1  UNL     1      -0.017  91.136 112.303  0.00  0.00    +0.000 C 
ATOM      3  C2  UNL     1      -0.946  92.296 112.508  0.00  0.00    +0.000 C 
ATOM      4  C3  UNL     1      -1.770  92.312 113.563  0.00  0.00    +0.000 C 
BRANCH   3   5
ATOM      5  O1  UNL     1      -0.937  93.362 111.608  0.00  0.00    +0.000 OA
ATOM      6  H12 UNL     1      -1.594  93.411 110.838  0.00  0.00    +0.000 HD
ENDBRANCH   3   5
ENDBRANCH   1   4
BRANCH   1   7
ATOM      7  S1  UNL     1      -1.860  94.822 114.676  0.00  0.00    +0.000 S 
BRANCH   7   8
ATOM      8  S2  UNL     1      -0.828  93.556 116.056  0.00  0.00    +0.000 S 
BRANCH   8   9
ATOM      9  C5  UNL     1      -0.747  94.816 117.370  0.00  0.00    +0.000 C 
BRANCH   9  10
ATOM     10  C6  UNL     1      -1.802  94.549 118.405  0.00  0.00    +0.000 C 
ATOM     11  C7  UNL     1      -2.608  93.486 118.335  0.00  0.00    +0.000 C 
ENDBRANCH   9  10
ENDBRANCH   8   9
ENDBRANCH   7   8
ENDBRANCH   1   7
TORSDOF 6
ENDMDL
MODEL 7
REMARK VINA RESULT:      -3.0      1.924      2.301
REMARK  Name = .\Allicin.pdb
REMARK  7 active torsions:
REMARK  status: ('A' for Active; 'I' for Inactive)
REMARK    1  A    between atoms: C1_1  and  C2_2
REMARK    2  A    between atoms: C2_2  and  O1_10
REMARK    3  A    between atoms: C3_3  and  C4_4
REMARK    4  A    between atoms: C4_4  and  S1_5
REMARK    5  A    between atoms: S1_5  and  S2_6
REMARK    6  A    between atoms: S2_6  and  C5_7
REMARK    7  A    between atoms: C5_7  and  C6_8
REMARK                            x       y       z     vdW  Elec       q    Type
REMARK                         _______ _______ _______ _____ _____    ______ ____
ROOT
ATOM      1  C4  UNL     1      -0.684  93.426 114.329  0.00  0.00    +0.000 C 
ENDROOT
BRANCH   1   4
ATOM      2  C1  UNL     1      -4.532  93.350 114.713  0.00  0.00    +0.000 C 
ATOM      3  C2  UNL     1      -3.156  93.169 114.144  0.00  0.00    +0.000 C 
ATOM      4  C3  UNL     1      -2.088  93.588 114.836  0.00  0.00    +0.000 C 
BRANCH   3   5
ATOM      5  O1  UNL     1      -2.990  92.551 112.905  0.00  0.00    +0.000 OA
ATOM      6  H12 UNL     1      -3.644  91.854 112.568  0.00  0.00    +0.000 HD
ENDBRANCH   3   5
ENDBRANCH   1   4
BRANCH   1   7
ATOM      7  S1  UNL     1       0.456  94.562 115.190  0.00  0.00    +0.000 S 
BRANCH   7   8
ATOM      8  S2  UNL     1      -1.100  95.620 116.208  0.00  0.00    +0.000 S 
BRANCH   8   9
ATOM      9  C5  UNL     1      -0.690  94.932 117.845  0.00  0.00    +0.000 C 
BRANCH   9  10
ATOM     10  C6  UNL     1      -1.947  94.686 118.629  0.00  0.00    +0.000 C 
ATOM     11  C7  UNL     1      -2.649  93.556 118.502  0.00  0.00    +0.000 C 
ENDBRANCH   9  10
ENDBRANCH   8   9
ENDBRANCH   7   8
ENDBRANCH   1   7
TORSDOF 6
ENDMDL
MODEL 8
REMARK VINA RESULT:      -3.0      2.267      2.727
REMARK  Name = .\Allicin.pdb
REMARK  7 active torsions:
REMARK  status: ('A' for Active; 'I' for Inactive)
REMARK    1  A    between atoms: C1_1  and  C2_2
REMARK    2  A    between atoms: C2_2  and  O1_10
REMARK    3  A    between atoms: C3_3  and  C4_4
REMARK    4  A    between atoms: C4_4  and  S1_5
REMARK    5  A    between atoms: S1_5  and  S2_6
REMARK    6  A    between atoms: S2_6  and  C5_7
REMARK    7  A    between atoms: C5_7  and  C6_8
REMARK                            x       y       z     vdW  Elec       q    Type
REMARK                         _______ _______ _______ _____ _____    ______ ____
ROOT
ATOM      1  C4  UNL     1      -2.087  94.452 114.688  0.00  0.00    +0.000 C 
ENDROOT
BRANCH   1   4
ATOM      2  C1  UNL     1      -1.092  91.053 113.135  0.00  0.00    +0.000 C 
ATOM      3  C2  UNL     1      -1.870  92.292 113.465  0.00  0.00    +0.000 C 
ATOM      4  C3  UNL     1      -1.365  93.187 114.325  0.00  0.00    +0.000 C 
BRANCH   3   5
ATOM      5  O1  UNL     1      -3.108  92.517 112.864  0.00  0.00    +0.000 OA
ATOM      6  H12 UNL     1      -3.847  93.019 113.343  0.00  0.00    +0.000 HD
ENDBRANCH   3   5
ENDBRANCH   1   4
BRANCH   1   7
ATOM      7  S1  UNL     1      -3.104  94.218 116.185  0.00  0.00    +0.000 S 
BRANCH   7   8
ATOM      8  S2  UNL     1      -1.440  93.754 117.446  0.00  0.00    +0.000 S 
BRANCH   8   9
ATOM      9  C5  UNL     1      -1.119  95.489 117.900  0.00  0.00    +0.000 C 
BRANCH   9  10
ATOM     10  C6  UNL     1      -2.388  96.142 118.370  0.00  0.00    +0.000 C 
ATOM     11  C7  UNL     1      -2.609  96.411 119.660  0.00  0.00    +0.000 C 
ENDBRANCH   9  10
ENDBRANCH   8   9
ENDBRANCH   7   8
ENDBRANCH   1   7
TORSDOF 6
ENDMDL
MODEL 9
REMARK VINA RESULT:      -2.9      2.617      3.581
REMARK  Name = .\Allicin.pdb
REMARK  7 active torsions:
REMARK  status: ('A' for Active; 'I' for Inactive)
REMARK    1  A    between atoms: C1_1  and  C2_2
REMARK    2  A    between atoms: C2_2  and  O1_10
REMARK    3  A    between atoms: C3_3  and  C4_4
REMARK    4  A    between atoms: C4_4  and  S1_5
REMARK    5  A    between atoms: S1_5  and  S2_6
REMARK    6  A    between atoms: S2_6  and  C5_7
REMARK    7  A    between atoms: C5_7  and  C6_8
REMARK                            x       y       z     vdW  Elec       q    Type
REMARK                         _______ _______ _______ _____ _____    ______ ____
ROOT
ATOM      1  C4  UNL     1      -0.290  93.615 117.148  0.00  0.00    +0.000 C 
ENDROOT
BRANCH   1   4
ATOM      2  C1  UNL     1      -1.832  96.744 118.819  0.00  0.00    +0.000 C 
ATOM      3  C2  UNL     1      -1.518  95.313 118.497  0.00  0.00    +0.000 C 
ATOM      4  C3  UNL     1      -0.657  95.025 117.513  0.00  0.00    +0.000 C 
BRANCH   3   5
ATOM      5  O1  UNL     1      -2.111  94.287 119.233  0.00  0.00    +0.000 OA
ATOM      6  H12 UNL     1      -1.621  93.422 119.427  0.00  0.00    +0.000 HD
ENDBRANCH   3   5
ENDBRANCH   1   4
BRANCH   1   7
ATOM      7  S1  UNL     1      -0.337  93.376 115.339  0.00  0.00    +0.000 S 
BRANCH   7   8
ATOM      8  S2  UNL     1      -1.870  94.833 115.017  0.00  0.00    +0.000 S 
BRANCH   8   9
ATOM      9  C5  UNL     1      -3.234  93.692 115.417  0.00  0.00    +0.000 C 
BRANCH   9  10
ATOM     10  C6  UNL     1      -4.221  94.368 116.324  0.00  0.00    +0.000 C 
ATOM     11  C7  UNL     1      -5.070  93.673 117.088  0.00  0.00    +0.000 C 
ENDBRANCH   9  10
ENDBRANCH   8   9
ENDBRANCH   7   8
ENDBRANCH   1   7
TORSDOF 6
ENDMDL
