MODEL 1
REMARK VINA RESULT:      -3.0      0.000      0.000
REMARK  Name = .\Allicin.pdb
REMARK  7 active torsions:
REMARK  status: ('A' for Active; 'I' for Inactive)
REMARK    1  A    between atoms: C1_1  and  C2_2
REMARK    2  A    between atoms: C2_2  and  O1_10
REMARK    3  A    between atoms: C3_3  and  C4_4
REMARK    4  A    between atoms: C4_4  and  S1_5
REMARK    5  A    between atoms: S1_5  and  S2_6
REMARK    6  A    between atoms: S2_6  and  C5_7
REMARK    7  A    between atoms: C5_7  and  C6_8
REMARK                            x       y       z     vdW  Elec       q    Type
REMARK                         _______ _______ _______ _____ _____    ______ ____
ROOT
ATOM      1  C4  UNL     1     -25.808  36.856  -8.655  0.00  0.00    +0.000 C 
ENDROOT
BRANCH   1   4
ATOM      2  C1  UNL     1     -22.307  36.826 -10.299  0.00  0.00    +0.000 C 
ATOM      3  C2  UNL     1     -23.398  36.961  -9.277  0.00  0.00    +0.000 C 
ATOM      4  C3  UNL     1     -24.672  36.748  -9.631  0.00  0.00    +0.000 C 
BRANCH   3   5
ATOM      5  O1  UNL     1     -23.080  37.291  -7.960  0.00  0.00    +0.000 OA
ATOM      6  H12 UNL     1     -23.700  37.063  -7.192  0.00  0.00    +0.000 HD
ENDBRANCH   3   5
ENDBRANCH   1   4
BRANCH   1   7
ATOM      7  S1  UNL     1     -27.351  37.341  -9.500  0.00  0.00    +0.000 S 
BRANCH   7   8
ATOM      8  S2  UNL     1     -26.354  38.308 -11.126  0.00  0.00    +0.000 S 
BRANCH   8   9
ATOM      9  C5  UNL     1     -26.360  39.951 -10.338  0.00  0.00    +0.000 C 
BRANCH   9  10
ATOM     10  C6  UNL     1     -25.012  40.598 -10.483  0.00  0.00    +0.000 C 
ATOM     11  C7  UNL     1     -24.103  40.565  -9.504  0.00  0.00    +0.000 C 
ENDBRANCH   9  10
ENDBRANCH   8   9
ENDBRANCH   7   8
ENDBRANCH   1   7
TORSDOF 6
ENDMDL
MODEL 2
REMARK VINA RESULT:      -2.9      3.739      4.995
REMARK  Name = .\Allicin.pdb
REMARK  7 active torsions:
REMARK  status: ('A' for Active; 'I' for Inactive)
REMARK    1  A    between atoms: C1_1  and  C2_2
REMARK    2  A    between atoms: C2_2  and  O1_10
REMARK    3  A    between atoms: C3_3  and  C4_4
REMARK    4  A    between atoms: C4_4  and  S1_5
REMARK    5  A    between atoms: S1_5  and  S2_6
REMARK    6  A    between atoms: S2_6  and  C5_7
REMARK    7  A    between atoms: C5_7  and  C6_8
REMARK                            x       y       z     vdW  Elec       q    Type
REMARK                         _______ _______ _______ _____ _____    ______ ____
ROOT
ATOM      1  C4  UNL     1     -28.040  38.403 -10.174  0.00  0.00    +0.000 C 
ENDROOT
BRANCH   1   4
ATOM      2  C1  UNL     1     -31.520  38.673  -8.508  0.00  0.00    +0.000 C 
ATOM      3  C2  UNL     1     -30.445  38.598  -9.552  0.00  0.00    +0.000 C 
ATOM      4  C3  UNL     1     -29.163  38.493  -9.181  0.00  0.00    +0.000 C 
BRANCH   3   5
ATOM      5  O1  UNL     1     -30.785  38.623 -10.904  0.00  0.00    +0.000 OA
ATOM      6  H12 UNL     1     -30.821  37.775 -11.458  0.00  0.00    +0.000 HD
ENDBRANCH   3   5
ENDBRANCH   1   4
BRANCH   1   7
ATOM      7  S1  UNL     1     -26.690  37.350  -9.541  0.00  0.00    +0.000 S 
BRANCH   7   8
ATOM      8  S2  UNL     1     -25.198  38.215 -10.806  0.00  0.00    +0.000 S 
BRANCH   8   9
ATOM      9  C5  UNL     1     -25.928  39.884 -10.764  0.00  0.00    +0.000 C 
BRANCH   9  10
ATOM     10  C6  UNL     1     -25.066  40.804  -9.948  0.00  0.00    +0.000 C 
ATOM     11  C7  UNL     1     -23.885  40.415  -9.456  0.00  0.00    +0.000 C 
ENDBRANCH   9  10
ENDBRANCH   8   9
ENDBRANCH   7   8
ENDBRANCH   1   7
TORSDOF 6
ENDMDL
MODEL 3
REMARK VINA RESULT:      -2.9      2.860      4.200
REMARK  Name = .\Allicin.pdb
REMARK  7 active torsions:
REMARK  status: ('A' for Active; 'I' for Inactive)
REMARK    1  A    between atoms: C1_1  and  C2_2
REMARK    2  A    between atoms: C2_2  and  O1_10
REMARK    3  A    between atoms: C3_3  and  C4_4
REMARK    4  A    between atoms: C4_4  and  S1_5
REMARK    5  A    between atoms: S1_5  and  S2_6
REMARK    6  A    between atoms: S2_6  and  C5_7
REMARK    7  A    between atoms: C5_7  and  C6_8
REMARK                            x       y       z     vdW  Elec       q    Type
REMARK                         _______ _______ _______ _____ _____    ______ ____
ROOT
ATOM      1  C4  UNL     1     -26.366  37.794 -11.751  0.00  0.00    +0.000 C 
ENDROOT
BRANCH   1   4
ATOM      2  C1  UNL     1     -25.020  40.767  -9.675  0.00  0.00    +0.000 C 
ATOM      3  C2  UNL     1     -25.827  39.965 -10.653  0.00  0.00    +0.000 C 
ATOM      4  C3  UNL     1     -25.587  38.655 -10.799  0.00  0.00    +0.000 C 
BRANCH   3   5
ATOM      5  O1  UNL     1     -26.834  40.581 -11.396  0.00  0.00    +0.000 OA
ATOM      6  H12 UNL     1     -26.627  41.317 -12.061  0.00  0.00    +0.000 HD
ENDBRANCH   3   5
ENDBRANCH   1   4
BRANCH   1   7
ATOM      7  S1  UNL     1     -26.411  36.062 -11.177  0.00  0.00    +0.000 S 
BRANCH   7   8
ATOM      8  S2  UNL     1     -26.474  36.576  -9.101  0.00  0.00    +0.000 S 
BRANCH   8   9
ATOM      9  C5  UNL     1     -28.291  36.698  -9.042  0.00  0.00    +0.000 C 
BRANCH   9  10
ATOM     10  C6  UNL     1     -28.706  38.131  -8.867  0.00  0.00    +0.000 C 
ATOM     11  C7  UNL     1     -29.473  38.759  -9.763  0.00  0.00    +0.000 C 
ENDBRANCH   9  10
ENDBRANCH   8   9
ENDBRANCH   7   8
ENDBRANCH   1   7
TORSDOF 6
ENDMDL
MODEL 4
REMARK VINA RESULT:      -2.9      2.109      3.448
REMARK  Name = .\Allicin.pdb
REMARK  7 active torsions:
REMARK  status: ('A' for Active; 'I' for Inactive)
REMARK    1  A    between atoms: C1_1  and  C2_2
REMARK    2  A    between atoms: C2_2  and  O1_10
REMARK    3  A    between atoms: C3_3  and  C4_4
REMARK    4  A    between atoms: C4_4  and  S1_5
REMARK    5  A    between atoms: S1_5  and  S2_6
REMARK    6  A    between atoms: S2_6  and  C5_7
REMARK    7  A    between atoms: C5_7  and  C6_8
REMARK                            x       y       z     vdW  Elec       q    Type
REMARK                         _______ _______ _______ _____ _____    ______ ____
ROOT
ATOM      1  C4  UNL     1     -24.119  37.036  -9.449  0.00  0.00    +0.000 C 
ENDROOT
BRANCH   1   4
ATOM      2  C1  UNL     1     -24.667  40.765 -10.318  0.00  0.00    +0.000 C 
ATOM      3  C2  UNL     1     -24.082  39.510  -9.739  0.00  0.00    +0.000 C 
ATOM      4  C3  UNL     1     -24.661  38.329  -9.988  0.00  0.00    +0.000 C 
BRANCH   3   5
ATOM      5  O1  UNL     1     -22.930  39.577  -8.956  0.00  0.00    +0.000 OA
ATOM      6  H12 UNL     1     -22.055  39.928  -9.329  0.00  0.00    +0.000 HD
ENDBRANCH   3   5
ENDBRANCH   1   4
BRANCH   1   7
ATOM      7  S1  UNL     1     -25.312  36.252  -8.311  0.00  0.00    +0.000 S 
BRANCH   7   8
ATOM      8  S2  UNL     1     -26.912  36.236  -9.731  0.00  0.00    +0.000 S 
BRANCH   8   9
ATOM      9  C5  UNL     1     -28.034  37.224  -8.689  0.00  0.00    +0.000 C 
BRANCH   9  10
ATOM     10  C6  UNL     1     -28.440  38.476  -9.413  0.00  0.00    +0.000 C 
ATOM     11  C7  UNL     1     -29.722  38.825  -9.556  0.00  0.00    +0.000 C 
ENDBRANCH   9  10
ENDBRANCH   8   9
ENDBRANCH   7   8
ENDBRANCH   1   7
TORSDOF 6
ENDMDL
MODEL 5
REMARK VINA RESULT:      -2.8      1.982      3.678
REMARK  Name = .\Allicin.pdb
REMARK  7 active torsions:
REMARK  status: ('A' for Active; 'I' for Inactive)
REMARK    1  A    between atoms: C1_1  and  C2_2
REMARK    2  A    between atoms: C2_2  and  O1_10
REMARK    3  A    between atoms: C3_3  and  C4_4
REMARK    4  A    between atoms: C4_4  and  S1_5
REMARK    5  A    between atoms: S1_5  and  S2_6
REMARK    6  A    between atoms: S2_6  and  C5_7
REMARK    7  A    between atoms: C5_7  and  C6_8
REMARK                            x       y       z     vdW  Elec       q    Type
REMARK                         _______ _______ _______ _____ _____    ______ ____
ROOT
ATOM      1  C4  UNL     1     -26.660  39.586 -11.213  0.00  0.00    +0.000 C 
ENDROOT
BRANCH   1   4
ATOM      2  C1  UNL     1     -23.316  39.852  -9.287  0.00  0.00    +0.000 C 
ATOM      3  C2  UNL     1     -24.723  40.115  -9.737  0.00  0.00    +0.000 C 
ATOM      4  C3  UNL     1     -25.255  39.382 -10.723  0.00  0.00    +0.000 C 
BRANCH   3   5
ATOM      5  O1  UNL     1     -25.477  41.112  -9.118  0.00  0.00    +0.000 OA
ATOM      6  H12 UNL     1     -26.299  41.506  -9.559  0.00  0.00    +0.000 HD
ENDBRANCH   3   5
ENDBRANCH   1   4
BRANCH   1   7
ATOM      7  S1  UNL     1     -27.543  37.995 -11.348  0.00  0.00    +0.000 S 
BRANCH   7   8
ATOM      8  S2  UNL     1     -28.124  37.951  -9.290  0.00  0.00    +0.000 S 
BRANCH   8   9
ATOM      9  C5  UNL     1     -27.291  36.368  -8.943  0.00  0.00    +0.000 C 
BRANCH   9  10
ATOM     10  C6  UNL     1     -25.969  36.617  -8.276  0.00  0.00    +0.000 C 
ATOM     11  C7  UNL     1     -24.813  36.256  -8.842  0.00  0.00    +0.000 C 
ENDBRANCH   9  10
ENDBRANCH   8   9
ENDBRANCH   7   8
ENDBRANCH   1   7
TORSDOF 6
ENDMDL
MODEL 6
REMARK VINA RESULT:      -2.6      2.916      4.149
REMARK  Name = .\Allicin.pdb
REMARK  7 active torsions:
REMARK  status: ('A' for Active; 'I' for Inactive)
REMARK    1  A    between atoms: C1_1  and  C2_2
REMARK    2  A    between atoms: C2_2  and  O1_10
REMARK    3  A    between atoms: C3_3  and  C4_4
REMARK    4  A    between atoms: C4_4  and  S1_5
REMARK    5  A    between atoms: S1_5  and  S2_6
REMARK    6  A    between atoms: S2_6  and  C5_7
REMARK    7  A    between atoms: C5_7  and  C6_8
REMARK                            x       y       z     vdW  Elec       q    Type
REMARK                         _______ _______ _______ _____ _____    ______ ____
ROOT
ATOM      1  C4  UNL     1     -27.065  38.012 -11.233  0.00  0.00    +0.000 C 
ENDROOT
BRANCH   1   4
ATOM      2  C1  UNL     1     -30.351  38.280  -9.212  0.00  0.00    +0.000 C 
ATOM      3  C2  UNL     1     -28.895  38.312  -9.569  0.00  0.00    +0.000 C 
ATOM      4  C3  UNL     1     -28.505  37.989 -10.809  0.00  0.00    +0.000 C 
BRANCH   3   5
ATOM      5  O1  UNL     1     -27.952  38.691  -8.613  0.00  0.00    +0.000 OA
ATOM      6  H12 UNL     1     -28.199  39.287  -7.832  0.00  0.00    +0.000 HD
ENDBRANCH   3   5
ENDBRANCH   1   4
BRANCH   1   7
ATOM      7  S1  UNL     1     -26.255  36.414 -10.883  0.00  0.00    +0.000 S 
BRANCH   7   8
ATOM      8  S2  UNL     1     -24.821  37.248  -9.532  0.00  0.00    +0.000 S 
BRANCH   8   9
ATOM      9  C5  UNL     1     -24.355  38.612 -10.646  0.00  0.00    +0.000 C 
BRANCH   9  10
ATOM     10  C6  UNL     1     -24.137  39.870  -9.856  0.00  0.00    +0.000 C 
ATOM     11  C7  UNL     1     -25.130  40.730  -9.608  0.00  0.00    +0.000 C 
ENDBRANCH   9  10
ENDBRANCH   8   9
ENDBRANCH   7   8
ENDBRANCH   1   7
TORSDOF 6
ENDMDL
MODEL 7
REMARK VINA RESULT:      -2.6      3.588      4.719
REMARK  Name = .\Allicin.pdb
REMARK  7 active torsions:
REMARK  status: ('A' for Active; 'I' for Inactive)
REMARK    1  A    between atoms: C1_1  and  C2_2
REMARK    2  A    between atoms: C2_2  and  O1_10
REMARK    3  A    between atoms: C3_3  and  C4_4
REMARK    4  A    between atoms: C4_4  and  S1_5
REMARK    5  A    between atoms: S1_5  and  S2_6
REMARK    6  A    between atoms: S2_6  and  C5_7
REMARK    7  A    between atoms: C5_7  and  C6_8
REMARK                            x       y       z     vdW  Elec       q    Type
REMARK                         _______ _______ _______ _____ _____    ______ ____
ROOT
ATOM      1  C4  UNL     1     -26.975  38.655 -10.700  0.00  0.00    +0.000 C 
ENDROOT
BRANCH   1   4
ATOM      2  C1  UNL     1     -23.814  40.475  -9.412  0.00  0.00    +0.000 C 
ATOM      3  C2  UNL     1     -25.118  40.206 -10.104  0.00  0.00    +0.000 C 
ATOM      4  C3  UNL     1     -25.668  38.987 -10.040  0.00  0.00    +0.000 C 
BRANCH   3   5
ATOM      5  O1  UNL     1     -25.761  41.230 -10.799  0.00  0.00    +0.000 OA
ATOM      6  H12 UNL     1     -25.279  42.085 -11.050  0.00  0.00    +0.000 HD
ENDBRANCH   3   5
ENDBRANCH   1   4
BRANCH   1   7
ATOM      7  S1  UNL     1     -28.306  38.483  -9.463  0.00  0.00    +0.000 S 
BRANCH   7   8
ATOM      8  S2  UNL     1     -29.299  36.902 -10.506  0.00  0.00    +0.000 S 
BRANCH   8   9
ATOM      9  C5  UNL     1     -30.948  37.314  -9.849  0.00  0.00    +0.000 C 
BRANCH   9  10
ATOM     10  C6  UNL     1     -30.991  38.756  -9.433  0.00  0.00    +0.000 C 
ATOM     11  C7  UNL     1     -31.999  39.253  -8.710  0.00  0.00    +0.000 C 
ENDBRANCH   9  10
ENDBRANCH   8   9
ENDBRANCH   7   8
ENDBRANCH   1   7
TORSDOF 6
ENDMDL
MODEL 8
REMARK VINA RESULT:      -2.5      2.441      4.294
REMARK  Name = .\Allicin.pdb
REMARK  7 active torsions:
REMARK  status: ('A' for Active; 'I' for Inactive)
REMARK    1  A    between atoms: C1_1  and  C2_2
REMARK    2  A    between atoms: C2_2  and  O1_10
REMARK    3  A    between atoms: C3_3  and  C4_4
REMARK    4  A    between atoms: C4_4  and  S1_5
REMARK    5  A    between atoms: S1_5  and  S2_6
REMARK    6  A    between atoms: S2_6  and  C5_7
REMARK    7  A    between atoms: C5_7  and  C6_8
REMARK                            x       y       z     vdW  Elec       q    Type
REMARK                         _______ _______ _______ _____ _____    ______ ____
ROOT
ATOM      1  C4  UNL     1     -26.357  40.035 -10.603  0.00  0.00    +0.000 C 
ENDROOT
BRANCH   1   4
ATOM      2  C1  UNL     1     -28.119  36.617 -10.192  0.00  0.00    +0.000 C 
ATOM      3  C2  UNL     1     -27.634  38.009  -9.915  0.00  0.00    +0.000 C 
ATOM      4  C3  UNL     1     -26.865  38.638 -10.813  0.00  0.00    +0.000 C 
BRANCH   3   5
ATOM      5  O1  UNL     1     -27.998  38.651  -8.731  0.00  0.00    +0.000 OA
ATOM      6  H12 UNL     1     -27.309  39.087  -8.130  0.00  0.00    +0.000 HD
ENDBRANCH   3   5
ENDBRANCH   1   4
BRANCH   1   7
ATOM      7  S1  UNL     1     -24.716  40.020  -9.803  0.00  0.00    +0.000 S 
BRANCH   7   8
ATOM      8  S2  UNL     1     -24.044  38.271 -10.834  0.00  0.00    +0.000 S 
BRANCH   8   9
ATOM      9  C5  UNL     1     -23.511  37.411  -9.319  0.00  0.00    +0.000 C 
BRANCH   9  10
ATOM     10  C6  UNL     1     -24.365  36.197  -9.087  0.00  0.00    +0.000 C 
ATOM     11  C7  UNL     1     -25.128  36.067  -7.998  0.00  0.00    +0.000 C 
ENDBRANCH   9  10
ENDBRANCH   8   9
ENDBRANCH   7   8
ENDBRANCH   1   7
TORSDOF 6
ENDMDL
MODEL 9
REMARK VINA RESULT:      -2.3      2.588      4.567
REMARK  Name = .\Allicin.pdb
REMARK  7 active torsions:
REMARK  status: ('A' for Active; 'I' for Inactive)
REMARK    1  A    between atoms: C1_1  and  C2_2
REMARK    2  A    between atoms: C2_2  and  O1_10
REMARK    3  A    between atoms: C3_3  and  C4_4
REMARK    4  A    between atoms: C4_4  and  S1_5
REMARK    5  A    between atoms: S1_5  and  S2_6
REMARK    6  A    between atoms: S2_6  and  C5_7
REMARK    7  A    between atoms: C5_7  and  C6_8
REMARK                            x       y       z     vdW  Elec       q    Type
REMARK                         _______ _______ _______ _____ _____    ______ ____
ROOT
ATOM      1  C4  UNL     1     -25.974  40.138  -9.878  0.00  0.00    +0.000 C 
ENDROOT
BRANCH   1   4
ATOM      2  C1  UNL     1     -28.971  37.846 -10.726  0.00  0.00    +0.000 C 
ATOM      3  C2  UNL     1     -27.937  38.606  -9.949  0.00  0.00    +0.000 C 
ATOM      4  C3  UNL     1     -27.027  39.344 -10.596  0.00  0.00    +0.000 C 
BRANCH   3   5
ATOM      5  O1  UNL     1     -27.938  38.555  -8.555  0.00  0.00    +0.000 OA
ATOM      6  H12 UNL     1     -28.430  39.244  -7.999  0.00  0.00    +0.000 HD
ENDBRANCH   3   5
ENDBRANCH   1   4
BRANCH   1   7
ATOM      7  S1  UNL     1     -24.313  39.773 -10.543  0.00  0.00    +0.000 S 
BRANCH   7   8
ATOM      8  S2  UNL     1     -24.225  37.809  -9.700  0.00  0.00    +0.000 S 
BRANCH   8   9
ATOM      9  C5  UNL     1     -22.647  37.381 -10.505  0.00  0.00    +0.000 C 
BRANCH   9  10
ATOM     10  C6  UNL     1     -22.870  37.117 -11.967  0.00  0.00    +0.000 C 
ATOM     11  C7  UNL     1     -23.914  36.408 -12.406  0.00  0.00    +0.000 C 
ENDBRANCH   9  10
ENDBRANCH   8   9
ENDBRANCH   7   8
ENDBRANCH   1   7
TORSDOF 6
ENDMDL
