MODEL 1
REMARK VINA RESULT:      -2.6      0.000      0.000
REMARK  Name = .\Allicin.pdb
REMARK  7 active torsions:
REMARK  status: ('A' for Active; 'I' for Inactive)
REMARK    1  A    between atoms: C1_1  and  C2_2
REMARK    2  A    between atoms: C2_2  and  O1_10
REMARK    3  A    between atoms: C3_3  and  C4_4
REMARK    4  A    between atoms: C4_4  and  S1_5
REMARK    5  A    between atoms: S1_5  and  S2_6
REMARK    6  A    between atoms: S2_6  and  C5_7
REMARK    7  A    between atoms: C5_7  and  C6_8
REMARK                            x       y       z     vdW  Elec       q    Type
REMARK                         _______ _______ _______ _____ _____    ______ ____
ROOT
ATOM      1  C4  UNL     1      -0.014  98.626  81.743  0.00  0.00    +0.000 C 
ENDROOT
BRANCH   1   4
ATOM      2  C1  UNL     1      -3.540  97.078  82.103  0.00  0.00    +0.000 C 
ATOM      3  C2  UNL     1      -2.146  97.530  82.423  0.00  0.00    +0.000 C 
ATOM      4  C3  UNL     1      -1.411  98.139  81.484  0.00  0.00    +0.000 C 
BRANCH   3   5
ATOM      5  O1  UNL     1      -1.626  97.330  83.702  0.00  0.00    +0.000 OA
ATOM      6  H12 UNL     1      -0.960  96.592  83.894  0.00  0.00    +0.000 HD
ENDBRANCH   3   5
ENDBRANCH   1   4
BRANCH   1   7
ATOM      7  S1  UNL     1       0.183 100.360  81.207  0.00  0.00    +0.000 S 
BRANCH   7   8
ATOM      8  S2  UNL     1      -0.783 101.177  82.932  0.00  0.00    +0.000 S 
BRANCH   8   9
ATOM      9  C5  UNL     1      -2.154 101.917  81.988  0.00  0.00    +0.000 C 
BRANCH   9  10
ATOM     10  C6  UNL     1      -3.409 101.116  82.188  0.00  0.00    +0.000 C 
ATOM     11  C7  UNL     1      -4.138 100.676  81.158  0.00  0.00    +0.000 C 
ENDBRANCH   9  10
ENDBRANCH   8   9
ENDBRANCH   7   8
ENDBRANCH   1   7
TORSDOF 6
ENDMDL
MODEL 2
REMARK VINA RESULT:      -2.2      1.603      1.779
REMARK  Name = .\Allicin.pdb
REMARK  7 active torsions:
REMARK  status: ('A' for Active; 'I' for Inactive)
REMARK    1  A    between atoms: C1_1  and  C2_2
REMARK    2  A    between atoms: C2_2  and  O1_10
REMARK    3  A    between atoms: C3_3  and  C4_4
REMARK    4  A    between atoms: C4_4  and  S1_5
REMARK    5  A    between atoms: S1_5  and  S2_6
REMARK    6  A    between atoms: S2_6  and  C5_7
REMARK    7  A    between atoms: C5_7  and  C6_8
REMARK                            x       y       z     vdW  Elec       q    Type
REMARK                         _______ _______ _______ _____ _____    ______ ____
ROOT
ATOM      1  C4  UNL     1      -0.146  98.608  81.045  0.00  0.00    +0.000 C 
ENDROOT
BRANCH   1   4
ATOM      2  C1  UNL     1      -3.552  97.118  82.109  0.00  0.00    +0.000 C 
ATOM      3  C2  UNL     1      -2.282  97.363  81.349  0.00  0.00    +0.000 C 
ATOM      4  C3  UNL     1      -1.438  98.321  81.753  0.00  0.00    +0.000 C 
BRANCH   3   5
ATOM      5  O1  UNL     1      -1.977  96.583  80.234  0.00  0.00    +0.000 OA
ATOM      6  H12 UNL     1      -2.156  95.586  80.219  0.00  0.00    +0.000 HD
ENDBRANCH   3   5
ENDBRANCH   1   4
BRANCH   1   7
ATOM      7  S1  UNL     1      -0.423  99.665  79.582  0.00  0.00    +0.000 S 
BRANCH   7   8
ATOM      8  S2  UNL     1      -1.166 101.322  80.713  0.00  0.00    +0.000 S 
BRANCH   8   9
ATOM      9  C5  UNL     1      -2.810 101.302  79.927  0.00  0.00    +0.000 C 
BRANCH   9  10
ATOM     10  C6  UNL     1      -3.872 101.058  80.961  0.00  0.00    +0.000 C 
ATOM     11  C7  UNL     1      -3.630 101.191  82.268  0.00  0.00    +0.000 C 
ENDBRANCH   9  10
ENDBRANCH   8   9
ENDBRANCH   7   8
ENDBRANCH   1   7
TORSDOF 6
ENDMDL
MODEL 3
REMARK VINA RESULT:      -1.5      1.856      2.066
REMARK  Name = .\Allicin.pdb
REMARK  7 active torsions:
REMARK  status: ('A' for Active; 'I' for Inactive)
REMARK    1  A    between atoms: C1_1  and  C2_2
REMARK    2  A    between atoms: C2_2  and  O1_10
REMARK    3  A    between atoms: C3_3  and  C4_4
REMARK    4  A    between atoms: C4_4  and  S1_5
REMARK    5  A    between atoms: S1_5  and  S2_6
REMARK    6  A    between atoms: S2_6  and  C5_7
REMARK    7  A    between atoms: C5_7  and  C6_8
REMARK                            x       y       z     vdW  Elec       q    Type
REMARK                         _______ _______ _______ _____ _____    ______ ____
ROOT
ATOM      1  C4  UNL     1      -1.823  98.478  82.467  0.00  0.00    +0.000 C 
ENDROOT
BRANCH   1   4
ATOM      2  C1  UNL     1      -2.694  95.917  79.703  0.00  0.00    +0.000 C 
ATOM      3  C2  UNL     1      -2.741  96.701  80.981  0.00  0.00    +0.000 C 
ATOM      4  C3  UNL     1      -1.825  97.650  81.215  0.00  0.00    +0.000 C 
BRANCH   3   5
ATOM      5  O1  UNL     1      -3.746  96.450  81.915  0.00  0.00    +0.000 OA
ATOM      6  H12 UNL     1      -3.536  96.323  82.899  0.00  0.00    +0.000 HD
ENDBRANCH   3   5
ENDBRANCH   1   4
BRANCH   1   7
ATOM      7  S1  UNL     1      -0.285  99.452  82.603  0.00  0.00    +0.000 S 
BRANCH   7   8
ATOM      8  S2  UNL     1      -1.285 101.343  82.601  0.00  0.00    +0.000 S 
BRANCH   8   9
ATOM      9  C5  UNL     1      -0.578 101.875  81.009  0.00  0.00    +0.000 C 
BRANCH   9  10
ATOM     10  C6  UNL     1      -1.649 101.920  79.958  0.00  0.00    +0.000 C 
ATOM     11  C7  UNL     1      -2.747 101.160  80.034  0.00  0.00    +0.000 C 
ENDBRANCH   9  10
ENDBRANCH   8   9
ENDBRANCH   7   8
ENDBRANCH   1   7
TORSDOF 6
ENDMDL
MODEL 4
REMARK VINA RESULT:      -1.5      1.753      2.146
REMARK  Name = .\Allicin.pdb
REMARK  7 active torsions:
REMARK  status: ('A' for Active; 'I' for Inactive)
REMARK    1  A    between atoms: C1_1  and  C2_2
REMARK    2  A    between atoms: C2_2  and  O1_10
REMARK    3  A    between atoms: C3_3  and  C4_4
REMARK    4  A    between atoms: C4_4  and  S1_5
REMARK    5  A    between atoms: S1_5  and  S2_6
REMARK    6  A    between atoms: S2_6  and  C5_7
REMARK    7  A    between atoms: C5_7  and  C6_8
REMARK                            x       y       z     vdW  Elec       q    Type
REMARK                         _______ _______ _______ _____ _____    ______ ____
ROOT
ATOM      1  C4  UNL     1      -0.137 100.170  81.071  0.00  0.00    +0.000 C 
ENDROOT
BRANCH   1   4
ATOM      2  C1  UNL     1      -1.654  97.470  83.387  0.00  0.00    +0.000 C 
ATOM      3  C2  UNL     1      -1.213  98.201  82.154  0.00  0.00    +0.000 C 
ATOM      4  C3  UNL     1      -0.612  99.392  82.264  0.00  0.00    +0.000 C 
BRANCH   3   5
ATOM      5  O1  UNL     1      -1.418  97.632  80.897  0.00  0.00    +0.000 OA
ATOM      6  H12 UNL     1      -0.643  97.325  80.321  0.00  0.00    +0.000 HD
ENDBRANCH   3   5
ENDBRANCH   1   4
BRANCH   1   7
ATOM      7  S1  UNL     1      -0.951 101.801  80.988  0.00  0.00    +0.000 S 
BRANCH   7   8
ATOM      8  S2  UNL     1      -2.246 101.259  79.374  0.00  0.00    +0.000 S 
BRANCH   8   9
ATOM      9  C5  UNL     1      -3.773 101.703  80.265  0.00  0.00    +0.000 C 
BRANCH   9  10
ATOM     10  C6  UNL     1      -3.838 100.969  81.574  0.00  0.00    +0.000 C 
ATOM     11  C7  UNL     1      -4.359  99.742  81.672  0.00  0.00    +0.000 C 
ENDBRANCH   9  10
ENDBRANCH   8   9
ENDBRANCH   7   8
ENDBRANCH   1   7
TORSDOF 6
ENDMDL
MODEL 5
REMARK VINA RESULT:      -1.4      2.234      2.895
REMARK  Name = .\Allicin.pdb
REMARK  7 active torsions:
REMARK  status: ('A' for Active; 'I' for Inactive)
REMARK    1  A    between atoms: C1_1  and  C2_2
REMARK    2  A    between atoms: C2_2  and  O1_10
REMARK    3  A    between atoms: C3_3  and  C4_4
REMARK    4  A    between atoms: C4_4  and  S1_5
REMARK    5  A    between atoms: S1_5  and  S2_6
REMARK    6  A    between atoms: S2_6  and  C5_7
REMARK    7  A    between atoms: C5_7  and  C6_8
REMARK                            x       y       z     vdW  Elec       q    Type
REMARK                         _______ _______ _______ _____ _____    ______ ____
ROOT
ATOM      1  C4  UNL     1      -1.777  98.725  82.078  0.00  0.00    +0.000 C 
ENDROOT
BRANCH   1   4
ATOM      2  C1  UNL     1      -2.715  95.771  79.765  0.00  0.00    +0.000 C 
ATOM      3  C2  UNL     1      -2.702  96.717  80.929  0.00  0.00    +0.000 C 
ATOM      4  C3  UNL     1      -1.834  97.736  80.950  0.00  0.00    +0.000 C 
BRANCH   3   5
ATOM      5  O1  UNL     1      -3.605  96.543  81.978  0.00  0.00    +0.000 OA
ATOM      6  H12 UNL     1      -3.478  95.815  82.672  0.00  0.00    +0.000 HD
ENDBRANCH   3   5
ENDBRANCH   1   4
BRANCH   1   7
ATOM      7  S1  UNL     1      -2.902 100.130  81.773  0.00  0.00    +0.000 S 
BRANCH   7   8
ATOM      8  S2  UNL     1      -1.530 101.170  80.504  0.00  0.00    +0.000 S 
BRANCH   8   9
ATOM      9  C5  UNL     1      -0.078 100.814  81.547  0.00  0.00    +0.000 C 
BRANCH   9  10
ATOM     10  C6  UNL     1       0.130 101.925  82.536  0.00  0.00    +0.000 C 
ATOM     11  C7  UNL     1       0.065 101.718  83.854  0.00  0.00    +0.000 C 
ENDBRANCH   9  10
ENDBRANCH   8   9
ENDBRANCH   7   8
ENDBRANCH   1   7
TORSDOF 6
ENDMDL
MODEL 6
REMARK VINA RESULT:      -1.2      2.894      4.286
REMARK  Name = .\Allicin.pdb
REMARK  7 active torsions:
REMARK  status: ('A' for Active; 'I' for Inactive)
REMARK    1  A    between atoms: C1_1  and  C2_2
REMARK    2  A    between atoms: C2_2  and  O1_10
REMARK    3  A    between atoms: C3_3  and  C4_4
REMARK    4  A    between atoms: C4_4  and  S1_5
REMARK    5  A    between atoms: S1_5  and  S2_6
REMARK    6  A    between atoms: S2_6  and  C5_7
REMARK    7  A    between atoms: C5_7  and  C6_8
REMARK                            x       y       z     vdW  Elec       q    Type
REMARK                         _______ _______ _______ _____ _____    ______ ____
ROOT
ATOM      1  C4  UNL     1      -2.946 100.161  81.994  0.00  0.00    +0.000 C 
ENDROOT
BRANCH   1   4
ATOM      2  C1  UNL     1      -5.558 101.553  79.505  0.00  0.00    +0.000 C 
ATOM      3  C2  UNL     1      -4.257 101.299  80.207  0.00  0.00    +0.000 C 
ATOM      4  C3  UNL     1      -4.217 100.467  81.255  0.00  0.00    +0.000 C 
BRANCH   3   5
ATOM      5  O1  UNL     1      -3.091 101.918  79.757  0.00  0.00    +0.000 OA
ATOM      6  H12 UNL     1      -3.115 102.804  79.266  0.00  0.00    +0.000 HD
ENDBRANCH   3   5
ENDBRANCH   1   4
BRANCH   1   7
ATOM      7  S1  UNL     1      -2.604  98.368  81.991  0.00  0.00    +0.000 S 
BRANCH   7   8
ATOM      8  S2  UNL     1      -0.656  98.573  81.129  0.00  0.00    +0.000 S 
BRANCH   8   9
ATOM      9  C5  UNL     1      -0.418 100.279  81.723  0.00  0.00    +0.000 C 
BRANCH   9  10
ATOM     10  C6  UNL     1       0.258 101.103  80.666  0.00  0.00    +0.000 C 
ATOM     11  C7  UNL     1       0.229 100.759  79.375  0.00  0.00    +0.000 C 
ENDBRANCH   9  10
ENDBRANCH   8   9
ENDBRANCH   7   8
ENDBRANCH   1   7
TORSDOF 6
ENDMDL
MODEL 7
REMARK VINA RESULT:      -1.0      1.535      1.828
REMARK  Name = .\Allicin.pdb
REMARK  7 active torsions:
REMARK  status: ('A' for Active; 'I' for Inactive)
REMARK    1  A    between atoms: C1_1  and  C2_2
REMARK    2  A    between atoms: C2_2  and  O1_10
REMARK    3  A    between atoms: C3_3  and  C4_4
REMARK    4  A    between atoms: C4_4  and  S1_5
REMARK    5  A    between atoms: S1_5  and  S2_6
REMARK    6  A    between atoms: S2_6  and  C5_7
REMARK    7  A    between atoms: C5_7  and  C6_8
REMARK                            x       y       z     vdW  Elec       q    Type
REMARK                         _______ _______ _______ _____ _____    ______ ____
ROOT
ATOM      1  C4  UNL     1      -0.278  98.740  80.480  0.00  0.00    +0.000 C 
ENDROOT
BRANCH   1   4
ATOM      2  C1  UNL     1      -3.215  96.282  81.017  0.00  0.00    +0.000 C 
ATOM      3  C2  UNL     1      -2.231  97.392  81.239  0.00  0.00    +0.000 C 
ATOM      4  C3  UNL     1      -1.285  97.638  80.324  0.00  0.00    +0.000 C 
BRANCH   3   5
ATOM      5  O1  UNL     1      -2.314  98.175  82.390  0.00  0.00    +0.000 OA
ATOM      6  H12 UNL     1      -1.628  98.893  82.595  0.00  0.00    +0.000 HD
ENDBRANCH   3   5
ENDBRANCH   1   4
BRANCH   1   7
ATOM      7  S1  UNL     1      -0.772 100.216  79.526  0.00  0.00    +0.000 S 
BRANCH   7   8
ATOM      8  S2  UNL     1       0.258 101.590  80.801  0.00  0.00    +0.000 S 
BRANCH   8   9
ATOM      9  C5  UNL     1      -0.382 100.859  82.343  0.00  0.00    +0.000 C 
BRANCH   9  10
ATOM     10  C6  UNL     1      -1.433 101.751  82.938  0.00  0.00    +0.000 C 
ATOM     11  C7  UNL     1      -2.730 101.603  82.654  0.00  0.00    +0.000 C 
ENDBRANCH   9  10
ENDBRANCH   8   9
ENDBRANCH   7   8
ENDBRANCH   1   7
TORSDOF 6
ENDMDL
MODEL 8
REMARK VINA RESULT:      -1.0      2.864      4.735
REMARK  Name = .\Allicin.pdb
REMARK  7 active torsions:
REMARK  status: ('A' for Active; 'I' for Inactive)
REMARK    1  A    between atoms: C1_1  and  C2_2
REMARK    2  A    between atoms: C2_2  and  O1_10
REMARK    3  A    between atoms: C3_3  and  C4_4
REMARK    4  A    between atoms: C4_4  and  S1_5
REMARK    5  A    between atoms: S1_5  and  S2_6
REMARK    6  A    between atoms: S2_6  and  C5_7
REMARK    7  A    between atoms: C5_7  and  C6_8
REMARK                            x       y       z     vdW  Elec       q    Type
REMARK                         _______ _______ _______ _____ _____    ______ ____
ROOT
ATOM      1  C4  UNL     1      -2.746 101.102  82.331  0.00  0.00    +0.000 C 
ENDROOT
BRANCH   1   4
ATOM      2  C1  UNL     1      -0.163 101.918  79.570  0.00  0.00    +0.000 C 
ATOM      3  C2  UNL     1      -1.468 101.702  80.277  0.00  0.00    +0.000 C 
ATOM      4  C3  UNL     1      -1.475 101.323  81.562  0.00  0.00    +0.000 C 
BRANCH   3   5
ATOM      5  O1  UNL     1      -2.670 101.912  79.601  0.00  0.00    +0.000 OA
ATOM      6  H12 UNL     1      -3.389 101.199  79.564  0.00  0.00    +0.000 HD
ENDBRANCH   3   5
ENDBRANCH   1   4
BRANCH   1   7
ATOM      7  S1  UNL     1      -3.579  99.571  81.789  0.00  0.00    +0.000 S 
BRANCH   7   8
ATOM      8  S2  UNL     1      -1.924  98.303  82.267  0.00  0.00    +0.000 S 
BRANCH   8   9
ATOM      9  C5  UNL     1      -2.015  97.360  80.711  0.00  0.00    +0.000 C 
BRANCH   9  10
ATOM     10  C6  UNL     1      -0.801  97.635  79.870  0.00  0.00    +0.000 C 
ATOM     11  C7  UNL     1       0.258  98.292  80.352  0.00  0.00    +0.000 C 
ENDBRANCH   9  10
ENDBRANCH   8   9
ENDBRANCH   7   8
ENDBRANCH   1   7
TORSDOF 6
ENDMDL
MODEL 9
REMARK VINA RESULT:      -1.0      2.579      3.501
REMARK  Name = .\Allicin.pdb
REMARK  7 active torsions:
REMARK  status: ('A' for Active; 'I' for Inactive)
REMARK    1  A    between atoms: C1_1  and  C2_2
REMARK    2  A    between atoms: C2_2  and  O1_10
REMARK    3  A    between atoms: C3_3  and  C4_4
REMARK    4  A    between atoms: C4_4  and  S1_5
REMARK    5  A    between atoms: S1_5  and  S2_6
REMARK    6  A    between atoms: S2_6  and  C5_7
REMARK    7  A    between atoms: C5_7  and  C6_8
REMARK                            x       y       z     vdW  Elec       q    Type
REMARK                         _______ _______ _______ _____ _____    ______ ____
ROOT
ATOM      1  C4  UNL     1      -2.476  97.234  80.834  0.00  0.00    +0.000 C 
ENDROOT
BRANCH   1   4
ATOM      2  C1  UNL     1      -2.665 100.570  82.781  0.00  0.00    +0.000 C 
ATOM      3  C2  UNL     1      -3.015  99.440  81.859  0.00  0.00    +0.000 C 
ATOM      4  C3  UNL     1      -2.180  98.402  81.730  0.00  0.00    +0.000 C 
BRANCH   3   5
ATOM      5  O1  UNL     1      -4.216  99.467  81.150  0.00  0.00    +0.000 OA
ATOM      6  H12 UNL     1      -4.304  99.969  80.274  0.00  0.00    +0.000 HD
ENDBRANCH   3   5
ENDBRANCH   1   4
BRANCH   1   7
ATOM      7  S1  UNL     1      -1.212  97.076  79.527  0.00  0.00    +0.000 S 
BRANCH   7   8
ATOM      8  S2  UNL     1       0.258  98.221  80.578  0.00  0.00    +0.000 S 
BRANCH   8   9
ATOM      9  C5  UNL     1       0.258  99.589  79.375  0.00  0.00    +0.000 C 
BRANCH   9  10
ATOM     10  C6  UNL     1      -0.045 100.886  80.070  0.00  0.00    +0.000 C 
ATOM     11  C7  UNL     1      -1.090 101.644  79.727  0.00  0.00    +0.000 C 
ENDBRANCH   9  10
ENDBRANCH   8   9
ENDBRANCH   7   8
ENDBRANCH   1   7
TORSDOF 6
ENDMDL
