MODEL 1
REMARK VINA RESULT:      -3.4      0.000      0.000
REMARK  Name = .\Allicin.pdb
REMARK  7 active torsions:
REMARK  status: ('A' for Active; 'I' for Inactive)
REMARK    1  A    between atoms: C1_1  and  C2_2
REMARK    2  A    between atoms: C2_2  and  O1_10
REMARK    3  A    between atoms: C3_3  and  C4_4
REMARK    4  A    between atoms: C4_4  and  S1_5
REMARK    5  A    between atoms: S1_5  and  S2_6
REMARK    6  A    between atoms: S2_6  and  C5_7
REMARK    7  A    between atoms: C5_7  and  C6_8
REMARK                            x       y       z     vdW  Elec       q    Type
REMARK                         _______ _______ _______ _____ _____    ______ ____
ROOT
ATOM      1  C4  UNL     1     -28.820  50.307   7.617  0.00  0.00    +0.000 C 
ENDROOT
BRANCH   1   4
ATOM      2  C1  UNL     1     -27.159  52.688  10.172  0.00  0.00    +0.000 C 
ATOM      3  C2  UNL     1     -27.646  52.107   8.878  0.00  0.00    +0.000 C 
ATOM      4  C3  UNL     1     -28.297  50.936   8.875  0.00  0.00    +0.000 C 
BRANCH   3   5
ATOM      5  O1  UNL     1     -27.435  52.795   7.683  0.00  0.00    +0.000 OA
ATOM      6  H12 UNL     1     -27.224  53.786   7.671  0.00  0.00    +0.000 HD
ENDBRANCH   3   5
ENDBRANCH   1   4
BRANCH   1   7
ATOM      7  S1  UNL     1     -30.440  49.516   7.906  0.00  0.00    +0.000 S 
BRANCH   7   8
ATOM      8  S2  UNL     1     -31.310  50.254   6.097  0.00  0.00    +0.000 S 
BRANCH   8   9
ATOM      9  C5  UNL     1     -29.906  51.346   5.700  0.00  0.00    +0.000 C 
BRANCH   9  10
ATOM     10  C6  UNL     1     -29.914  51.685   4.237  0.00  0.00    +0.000 C 
ATOM     11  C7  UNL     1     -30.488  50.889   3.330  0.00  0.00    +0.000 C 
ENDBRANCH   9  10
ENDBRANCH   8   9
ENDBRANCH   7   8
ENDBRANCH   1   7
TORSDOF 6
ENDMDL
MODEL 2
REMARK VINA RESULT:      -3.2      2.400      4.649
REMARK  Name = .\Allicin.pdb
REMARK  7 active torsions:
REMARK  status: ('A' for Active; 'I' for Inactive)
REMARK    1  A    between atoms: C1_1  and  C2_2
REMARK    2  A    between atoms: C2_2  and  O1_10
REMARK    3  A    between atoms: C3_3  and  C4_4
REMARK    4  A    between atoms: C4_4  and  S1_5
REMARK    5  A    between atoms: S1_5  and  S2_6
REMARK    6  A    between atoms: S2_6  and  C5_7
REMARK    7  A    between atoms: C5_7  and  C6_8
REMARK                            x       y       z     vdW  Elec       q    Type
REMARK                         _______ _______ _______ _____ _____    ______ ____
ROOT
ATOM      1  C4  UNL     1     -31.871  49.610   6.869  0.00  0.00    +0.000 C 
ENDROOT
BRANCH   1   4
ATOM      2  C1  UNL     1     -29.778  51.732   4.405  0.00  0.00    +0.000 C 
ATOM      3  C2  UNL     1     -30.702  50.683   4.948  0.00  0.00    +0.000 C 
ATOM      4  C3  UNL     1     -30.948  50.627   6.263  0.00  0.00    +0.000 C 
BRANCH   3   5
ATOM      5  O1  UNL     1     -31.315  49.779   4.081  0.00  0.00    +0.000 OA
ATOM      6  H12 UNL     1     -31.921  50.090   3.331  0.00  0.00    +0.000 HD
ENDBRANCH   3   5
ENDBRANCH   1   4
BRANCH   1   7
ATOM      7  S1  UNL     1     -31.257  49.058   8.497  0.00  0.00    +0.000 S 
BRANCH   7   8
ATOM      8  S2  UNL     1     -29.193  49.228   7.963  0.00  0.00    +0.000 S 
BRANCH   8   9
ATOM      9  C5  UNL     1     -28.704  50.007   9.536  0.00  0.00    +0.000 C 
BRANCH   9  10
ATOM     10  C6  UNL     1     -28.005  51.309   9.272  0.00  0.00    +0.000 C 
ATOM     11  C7  UNL     1     -28.035  51.896   8.072  0.00  0.00    +0.000 C 
ENDBRANCH   9  10
ENDBRANCH   8   9
ENDBRANCH   7   8
ENDBRANCH   1   7
TORSDOF 6
ENDMDL
MODEL 3
REMARK VINA RESULT:      -3.2      2.947      4.569
REMARK  Name = .\Allicin.pdb
REMARK  7 active torsions:
REMARK  status: ('A' for Active; 'I' for Inactive)
REMARK    1  A    between atoms: C1_1  and  C2_2
REMARK    2  A    between atoms: C2_2  and  O1_10
REMARK    3  A    between atoms: C3_3  and  C4_4
REMARK    4  A    between atoms: C4_4  and  S1_5
REMARK    5  A    between atoms: S1_5  and  S2_6
REMARK    6  A    between atoms: S2_6  and  C5_7
REMARK    7  A    between atoms: C5_7  and  C6_8
REMARK                            x       y       z     vdW  Elec       q    Type
REMARK                         _______ _______ _______ _____ _____    ______ ____
ROOT
ATOM      1  C4  UNL     1     -30.042  51.168   7.163  0.00  0.00    +0.000 C 
ENDROOT
BRANCH   1   4
ATOM      2  C1  UNL     1     -30.383  51.040   3.313  0.00  0.00    +0.000 C 
ATOM      3  C2  UNL     1     -29.976  51.471   4.691  0.00  0.00    +0.000 C 
ATOM      4  C3  UNL     1     -30.422  50.797   5.759  0.00  0.00    +0.000 C 
BRANCH   3   5
ATOM      5  O1  UNL     1     -29.122  52.561   4.855  0.00  0.00    +0.000 OA
ATOM      6  H12 UNL     1     -29.428  53.508   4.664  0.00  0.00    +0.000 HD
ENDBRANCH   3   5
ENDBRANCH   1   4
BRANCH   1   7
ATOM      7  S1  UNL     1     -31.197  52.406   7.847  0.00  0.00    +0.000 S 
BRANCH   7   8
ATOM      8  S2  UNL     1     -32.945  51.237   7.454  0.00  0.00    +0.000 S 
BRANCH   8   9
ATOM      9  C5  UNL     1     -32.538  49.957   8.685  0.00  0.00    +0.000 C 
BRANCH   9  10
ATOM     10  C6  UNL     1     -32.587  48.597   8.050  0.00  0.00    +0.000 C 
ATOM     11  C7  UNL     1     -33.675  48.154   7.413  0.00  0.00    +0.000 C 
ENDBRANCH   9  10
ENDBRANCH   8   9
ENDBRANCH   7   8
ENDBRANCH   1   7
TORSDOF 6
ENDMDL
MODEL 4
REMARK VINA RESULT:      -3.1      2.228      3.781
REMARK  Name = .\Allicin.pdb
REMARK  7 active torsions:
REMARK  status: ('A' for Active; 'I' for Inactive)
REMARK    1  A    between atoms: C1_1  and  C2_2
REMARK    2  A    between atoms: C2_2  and  O1_10
REMARK    3  A    between atoms: C3_3  and  C4_4
REMARK    4  A    between atoms: C4_4  and  S1_5
REMARK    5  A    between atoms: S1_5  and  S2_6
REMARK    6  A    between atoms: S2_6  and  C5_7
REMARK    7  A    between atoms: C5_7  and  C6_8
REMARK                            x       y       z     vdW  Elec       q    Type
REMARK                         _______ _______ _______ _____ _____    ______ ____
ROOT
ATOM      1  C4  UNL     1     -28.282  51.488   8.477  0.00  0.00    +0.000 C 
ENDROOT
BRANCH   1   4
ATOM      2  C1  UNL     1     -29.983  51.522   5.003  0.00  0.00    +0.000 C 
ATOM      3  C2  UNL     1     -29.530  51.946   6.369  0.00  0.00    +0.000 C 
ATOM      4  C3  UNL     1     -28.778  51.121   7.108  0.00  0.00    +0.000 C 
BRANCH   3   5
ATOM      5  O1  UNL     1     -29.879  53.204   6.859  0.00  0.00    +0.000 OA
ATOM      6  H12 UNL     1     -30.653  53.327   7.502  0.00  0.00    +0.000 HD
ENDBRANCH   3   5
ENDBRANCH   1   4
BRANCH   1   7
ATOM      7  S1  UNL     1     -28.851  50.283   9.724  0.00  0.00    +0.000 S 
BRANCH   7   8
ATOM      8  S2  UNL     1     -29.167  48.713   8.306  0.00  0.00    +0.000 S 
BRANCH   8   9
ATOM      9  C5  UNL     1     -30.868  48.365   8.858  0.00  0.00    +0.000 C 
BRANCH   9  10
ATOM     10  C6  UNL     1     -31.784  49.479   8.438  0.00  0.00    +0.000 C 
ATOM     11  C7  UNL     1     -32.328  49.526   7.219  0.00  0.00    +0.000 C 
ENDBRANCH   9  10
ENDBRANCH   8   9
ENDBRANCH   7   8
ENDBRANCH   1   7
TORSDOF 6
ENDMDL
MODEL 5
REMARK VINA RESULT:      -3.1      1.838      4.629
REMARK  Name = .\Allicin.pdb
REMARK  7 active torsions:
REMARK  status: ('A' for Active; 'I' for Inactive)
REMARK    1  A    between atoms: C1_1  and  C2_2
REMARK    2  A    between atoms: C2_2  and  O1_10
REMARK    3  A    between atoms: C3_3  and  C4_4
REMARK    4  A    between atoms: C4_4  and  S1_5
REMARK    5  A    between atoms: S1_5  and  S2_6
REMARK    6  A    between atoms: S2_6  and  C5_7
REMARK    7  A    between atoms: C5_7  and  C6_8
REMARK                            x       y       z     vdW  Elec       q    Type
REMARK                         _______ _______ _______ _____ _____    ______ ____
ROOT
ATOM      1  C4  UNL     1     -31.252  50.068   6.925  0.00  0.00    +0.000 C 
ENDROOT
BRANCH   1   4
ATOM      2  C1  UNL     1     -30.386  51.149   3.314  0.00  0.00    +0.000 C 
ATOM      3  C2  UNL     1     -30.352  51.027   4.809  0.00  0.00    +0.000 C 
ATOM      4  C3  UNL     1     -31.239  50.243   5.434  0.00  0.00    +0.000 C 
BRANCH   3   5
ATOM      5  O1  UNL     1     -29.388  51.719   5.542  0.00  0.00    +0.000 OA
ATOM      6  H12 UNL     1     -29.321  52.729   5.511  0.00  0.00    +0.000 HD
ENDBRANCH   3   5
ENDBRANCH   1   4
BRANCH   1   7
ATOM      7  S1  UNL     1     -32.274  51.351   7.725  0.00  0.00    +0.000 S 
BRANCH   7   8
ATOM      8  S2  UNL     1     -30.647  52.196   8.828  0.00  0.00    +0.000 S 
BRANCH   8   9
ATOM      9  C5  UNL     1     -29.763  50.613   9.009  0.00  0.00    +0.000 C 
BRANCH   9  10
ATOM     10  C6  UNL     1     -28.283  50.832   8.878  0.00  0.00    +0.000 C 
ATOM     11  C7  UNL     1     -27.761  52.049   8.698  0.00  0.00    +0.000 C 
ENDBRANCH   9  10
ENDBRANCH   8   9
ENDBRANCH   7   8
ENDBRANCH   1   7
TORSDOF 6
ENDMDL
MODEL 6
REMARK VINA RESULT:      -3.0      3.382      4.853
REMARK  Name = .\Allicin.pdb
REMARK  7 active torsions:
REMARK  status: ('A' for Active; 'I' for Inactive)
REMARK    1  A    between atoms: C1_1  and  C2_2
REMARK    2  A    between atoms: C2_2  and  O1_10
REMARK    3  A    between atoms: C3_3  and  C4_4
REMARK    4  A    between atoms: C4_4  and  S1_5
REMARK    5  A    between atoms: S1_5  and  S2_6
REMARK    6  A    between atoms: S2_6  and  C5_7
REMARK    7  A    between atoms: C5_7  and  C6_8
REMARK                            x       y       z     vdW  Elec       q    Type
REMARK                         _______ _______ _______ _____ _____    ______ ____
ROOT
ATOM      1  C4  UNL     1     -32.189  52.160   7.613  0.00  0.00    +0.000 C 
ENDROOT
BRANCH   1   4
ATOM      2  C1  UNL     1     -33.152  48.414   7.631  0.00  0.00    +0.000 C 
ATOM      3  C2  UNL     1     -32.666  49.755   7.167  0.00  0.00    +0.000 C 
ATOM      4  C3  UNL     1     -32.673  50.795   8.011  0.00  0.00    +0.000 C 
BRANCH   3   5
ATOM      5  O1  UNL     1     -32.195  49.912   5.864  0.00  0.00    +0.000 OA
ATOM      6  H12 UNL     1     -31.234  50.170   5.674  0.00  0.00    +0.000 HD
ENDBRANCH   3   5
ENDBRANCH   1   4
BRANCH   1   7
ATOM      7  S1  UNL     1     -30.668  52.604   8.519  0.00  0.00    +0.000 S 
BRANCH   7   8
ATOM      8  S2  UNL     1     -29.373  52.253   6.853  0.00  0.00    +0.000 S 
BRANCH   8   9
ATOM      9  C5  UNL     1     -28.373  50.997   7.715  0.00  0.00    +0.000 C 
BRANCH   9  10
ATOM     10  C6  UNL     1     -28.924  49.626   7.446  0.00  0.00    +0.000 C 
ATOM     11  C7  UNL     1     -29.275  48.799   8.435  0.00  0.00    +0.000 C 
ENDBRANCH   9  10
ENDBRANCH   8   9
ENDBRANCH   7   8
ENDBRANCH   1   7
TORSDOF 6
ENDMDL
MODEL 7
REMARK VINA RESULT:      -2.9      2.872      3.561
REMARK  Name = .\Allicin.pdb
REMARK  7 active torsions:
REMARK  status: ('A' for Active; 'I' for Inactive)
REMARK    1  A    between atoms: C1_1  and  C2_2
REMARK    2  A    between atoms: C2_2  and  O1_10
REMARK    3  A    between atoms: C3_3  and  C4_4
REMARK    4  A    between atoms: C4_4  and  S1_5
REMARK    5  A    between atoms: S1_5  and  S2_6
REMARK    6  A    between atoms: S2_6  and  C5_7
REMARK    7  A    between atoms: C5_7  and  C6_8
REMARK                            x       y       z     vdW  Elec       q    Type
REMARK                         _______ _______ _______ _____ _____    ______ ____
ROOT
ATOM      1  C4  UNL     1     -28.689  51.104   7.281  0.00  0.00    +0.000 C 
ENDROOT
BRANCH   1   4
ATOM      2  C1  UNL     1     -29.135  48.256   9.859  0.00  0.00    +0.000 C 
ATOM      3  C2  UNL     1     -28.827  48.985   8.585  0.00  0.00    +0.000 C 
ATOM      4  C3  UNL     1     -28.990  50.313   8.521  0.00  0.00    +0.000 C 
BRANCH   3   5
ATOM      5  O1  UNL     1     -28.357  48.282   7.476  0.00  0.00    +0.000 OA
ATOM      6  H12 UNL     1     -27.580  47.635   7.548  0.00  0.00    +0.000 HD
ENDBRANCH   3   5
ENDBRANCH   1   4
BRANCH   1   7
ATOM      7  S1  UNL     1     -30.133  51.146   6.166  0.00  0.00    +0.000 S 
BRANCH   7   8
ATOM      8  S2  UNL     1     -31.331  52.325   7.489  0.00  0.00    +0.000 S 
BRANCH   8   9
ATOM      9  C5  UNL     1     -32.769  51.209   7.410  0.00  0.00    +0.000 C 
BRANCH   9  10
ATOM     10  C6  UNL     1     -32.325  49.823   7.040  0.00  0.00    +0.000 C 
ATOM     11  C7  UNL     1     -32.832  48.736   7.630  0.00  0.00    +0.000 C 
ENDBRANCH   9  10
ENDBRANCH   8   9
ENDBRANCH   7   8
ENDBRANCH   1   7
TORSDOF 6
ENDMDL
MODEL 8
REMARK VINA RESULT:      -2.9      2.587      4.521
REMARK  Name = .\Allicin.pdb
REMARK  7 active torsions:
REMARK  status: ('A' for Active; 'I' for Inactive)
REMARK    1  A    between atoms: C1_1  and  C2_2
REMARK    2  A    between atoms: C2_2  and  O1_10
REMARK    3  A    between atoms: C3_3  and  C4_4
REMARK    4  A    between atoms: C4_4  and  S1_5
REMARK    5  A    between atoms: S1_5  and  S2_6
REMARK    6  A    between atoms: S2_6  and  C5_7
REMARK    7  A    between atoms: C5_7  and  C6_8
REMARK                            x       y       z     vdW  Elec       q    Type
REMARK                         _______ _______ _______ _____ _____    ______ ____
ROOT
ATOM      1  C4  UNL     1     -29.129  51.017   7.376  0.00  0.00    +0.000 C 
ENDROOT
BRANCH   1   4
ATOM      2  C1  UNL     1     -30.700  50.754   3.852  0.00  0.00    +0.000 C 
ATOM      3  C2  UNL     1     -29.936  51.274   5.033  0.00  0.00    +0.000 C 
ATOM      4  C3  UNL     1     -29.886  50.558   6.163  0.00  0.00    +0.000 C 
BRANCH   3   5
ATOM      5  O1  UNL     1     -29.265  52.494   4.945  0.00  0.00    +0.000 OA
ATOM      6  H12 UNL     1     -29.680  53.295   4.482  0.00  0.00    +0.000 HD
ENDBRANCH   3   5
ENDBRANCH   1   4
BRANCH   1   7
ATOM      7  S1  UNL     1     -28.424  49.597   8.281  0.00  0.00    +0.000 S 
BRANCH   7   8
ATOM      8  S2  UNL     1     -29.943  49.591   9.788  0.00  0.00    +0.000 S 
BRANCH   8   9
ATOM      9  C5  UNL     1     -30.905  48.253   9.012  0.00  0.00    +0.000 C 
BRANCH   9  10
ATOM     10  C6  UNL     1     -32.329  48.690   8.815  0.00  0.00    +0.000 C 
ATOM     11  C7  UNL     1     -32.879  48.780   7.600  0.00  0.00    +0.000 C 
ENDBRANCH   9  10
ENDBRANCH   8   9
ENDBRANCH   7   8
ENDBRANCH   1   7
TORSDOF 6
ENDMDL
MODEL 9
REMARK VINA RESULT:      -2.9      1.491      1.666
REMARK  Name = .\Allicin.pdb
REMARK  7 active torsions:
REMARK  status: ('A' for Active; 'I' for Inactive)
REMARK    1  A    between atoms: C1_1  and  C2_2
REMARK    2  A    between atoms: C2_2  and  O1_10
REMARK    3  A    between atoms: C3_3  and  C4_4
REMARK    4  A    between atoms: C4_4  and  S1_5
REMARK    5  A    between atoms: S1_5  and  S2_6
REMARK    6  A    between atoms: S2_6  and  C5_7
REMARK    7  A    between atoms: C5_7  and  C6_8
REMARK                            x       y       z     vdW  Elec       q    Type
REMARK                         _______ _______ _______ _____ _____    ______ ____
ROOT
ATOM      1  C4  UNL     1     -28.597  50.027   7.866  0.00  0.00    +0.000 C 
ENDROOT
BRANCH   1   4
ATOM      2  C1  UNL     1     -27.274  52.814  10.197  0.00  0.00    +0.000 C 
ATOM      3  C2  UNL     1     -27.667  52.062   8.960  0.00  0.00    +0.000 C 
ATOM      4  C3  UNL     1     -28.173  50.827   9.063  0.00  0.00    +0.000 C 
BRANCH   3   5
ATOM      5  O1  UNL     1     -27.519  52.658   7.708  0.00  0.00    +0.000 OA
ATOM      6  H12 UNL     1     -27.085  52.168   6.935  0.00  0.00    +0.000 HD
ENDBRANCH   3   5
ENDBRANCH   1   4
BRANCH   1   7
ATOM      7  S1  UNL     1     -29.847  48.778   8.324  0.00  0.00    +0.000 S 
BRANCH   7   8
ATOM      8  S2  UNL     1     -31.324  50.220   8.886  0.00  0.00    +0.000 S 
BRANCH   8   9
ATOM      9  C5  UNL     1     -31.338  51.047   7.262  0.00  0.00    +0.000 C 
BRANCH   9  10
ATOM     10  C6  UNL     1     -31.820  50.097   6.204  0.00  0.00    +0.000 C 
ATOM     11  C7  UNL     1     -31.317  50.103   4.966  0.00  0.00    +0.000 C 
ENDBRANCH   9  10
ENDBRANCH   8   9
ENDBRANCH   7   8
ENDBRANCH   1   7
TORSDOF 6
ENDMDL
