MODEL 1
REMARK VINA RESULT:      -3.8      0.000      0.000
REMARK  Name = .\Allicin.pdb
REMARK  7 active torsions:
REMARK  status: ('A' for Active; 'I' for Inactive)
REMARK    1  A    between atoms: C1_1  and  C2_2
REMARK    2  A    between atoms: C2_2  and  O1_10
REMARK    3  A    between atoms: C3_3  and  C4_4
REMARK    4  A    between atoms: C4_4  and  S1_5
REMARK    5  A    between atoms: S1_5  and  S2_6
REMARK    6  A    between atoms: S2_6  and  C5_7
REMARK    7  A    between atoms: C5_7  and  C6_8
REMARK                            x       y       z     vdW  Elec       q    Type
REMARK                         _______ _______ _______ _____ _____    ______ ____
ROOT
ATOM      1  C4  UNL     1      -9.712  41.550  13.002  0.00  0.00    +0.000 C 
ENDROOT
BRANCH   1   4
ATOM      2  C1  UNL     1      -7.240  40.741  10.139  0.00  0.00    +0.000 C 
ATOM      3  C2  UNL     1      -7.847  40.846  11.507  0.00  0.00    +0.000 C 
ATOM      4  C3  UNL     1      -9.045  41.424  11.663  0.00  0.00    +0.000 C 
BRANCH   3   5
ATOM      5  O1  UNL     1      -7.169  40.328  12.610  0.00  0.00    +0.000 OA
ATOM      6  H12 UNL     1      -7.210  40.778  13.517  0.00  0.00    +0.000 HD
ENDBRANCH   3   5
ENDBRANCH   1   4
BRANCH   1   7
ATOM      7  S1  UNL     1     -11.386  42.258  12.834  0.00  0.00    +0.000 S 
BRANCH   7   8
ATOM      8  S2  UNL     1     -11.504  42.890  14.874  0.00  0.00    +0.000 S 
BRANCH   8   9
ATOM      9  C5  UNL     1      -9.813  42.351  15.287  0.00  0.00    +0.000 C 
BRANCH   9  10
ATOM     10  C6  UNL     1      -9.543  42.574  16.747  0.00  0.00    +0.000 C 
ATOM     11  C7  UNL     1      -9.755  43.756  17.332  0.00  0.00    +0.000 C 
ENDBRANCH   9  10
ENDBRANCH   8   9
ENDBRANCH   7   8
ENDBRANCH   1   7
TORSDOF 6
ENDMDL
MODEL 2
REMARK VINA RESULT:      -3.8      0.773      1.090
REMARK  Name = .\Allicin.pdb
REMARK  7 active torsions:
REMARK  status: ('A' for Active; 'I' for Inactive)
REMARK    1  A    between atoms: C1_1  and  C2_2
REMARK    2  A    between atoms: C2_2  and  O1_10
REMARK    3  A    between atoms: C3_3  and  C4_4
REMARK    4  A    between atoms: C4_4  and  S1_5
REMARK    5  A    between atoms: S1_5  and  S2_6
REMARK    6  A    between atoms: S2_6  and  C5_7
REMARK    7  A    between atoms: C5_7  and  C6_8
REMARK                            x       y       z     vdW  Elec       q    Type
REMARK                         _______ _______ _______ _____ _____    ______ ____
ROOT
ATOM      1  C4  UNL     1      -9.717  41.503  13.156  0.00  0.00    +0.000 C 
ENDROOT
BRANCH   1   4
ATOM      2  C1  UNL     1      -7.340  40.765  10.196  0.00  0.00    +0.000 C 
ATOM      3  C2  UNL     1      -7.895  40.850  11.587  0.00  0.00    +0.000 C 
ATOM      4  C3  UNL     1      -9.100  41.397  11.792  0.00  0.00    +0.000 C 
BRANCH   3   5
ATOM      5  O1  UNL     1      -7.161  40.346  12.661  0.00  0.00    +0.000 OA
ATOM      6  H12 UNL     1      -6.341  39.769  12.518  0.00  0.00    +0.000 HD
ENDBRANCH   3   5
ENDBRANCH   1   4
BRANCH   1   7
ATOM      7  S1  UNL     1     -11.366  42.279  13.070  0.00  0.00    +0.000 S 
BRANCH   7   8
ATOM      8  S2  UNL     1     -11.227  43.182  15.004  0.00  0.00    +0.000 S 
BRANCH   8   9
ATOM      9  C5  UNL     1      -9.790  42.187  15.520  0.00  0.00    +0.000 C 
BRANCH   9  10
ATOM     10  C6  UNL     1      -9.943  41.767  16.954  0.00  0.00    +0.000 C 
ATOM     11  C7  UNL     1      -9.799  40.494  17.337  0.00  0.00    +0.000 C 
ENDBRANCH   9  10
ENDBRANCH   8   9
ENDBRANCH   7   8
ENDBRANCH   1   7
TORSDOF 6
ENDMDL
MODEL 3
REMARK VINA RESULT:      -3.6      2.754      3.179
REMARK  Name = .\Allicin.pdb
REMARK  7 active torsions:
REMARK  status: ('A' for Active; 'I' for Inactive)
REMARK    1  A    between atoms: C1_1  and  C2_2
REMARK    2  A    between atoms: C2_2  and  O1_10
REMARK    3  A    between atoms: C3_3  and  C4_4
REMARK    4  A    between atoms: C4_4  and  S1_5
REMARK    5  A    between atoms: S1_5  and  S2_6
REMARK    6  A    between atoms: S2_6  and  C5_7
REMARK    7  A    between atoms: C5_7  and  C6_8
REMARK                            x       y       z     vdW  Elec       q    Type
REMARK                         _______ _______ _______ _____ _____    ______ ____
ROOT
ATOM      1  C4  UNL     1      -9.436  41.519  14.776  0.00  0.00    +0.000 C 
ENDROOT
BRANCH   1   4
ATOM      2  C1  UNL     1      -7.914  40.929  11.269  0.00  0.00    +0.000 C 
ATOM      3  C2  UNL     1      -8.061  41.014  12.760  0.00  0.00    +0.000 C 
ATOM      4  C3  UNL     1      -9.219  41.424  13.293  0.00  0.00    +0.000 C 
BRANCH   3   5
ATOM      5  O1  UNL     1      -6.997  40.652  13.585  0.00  0.00    +0.000 OA
ATOM      6  H12 UNL     1      -7.100  40.602  14.592  0.00  0.00    +0.000 HD
ENDBRANCH   3   5
ENDBRANCH   1   4
BRANCH   1   7
ATOM      7  S1  UNL     1     -10.504  40.163  15.369  0.00  0.00    +0.000 S 
BRANCH   7   8
ATOM      8  S2  UNL     1     -10.664  40.936  17.357  0.00  0.00    +0.000 S 
BRANCH   8   9
ATOM      9  C5  UNL     1     -10.176  39.373  18.156  0.00  0.00    +0.000 C 
BRANCH   9  10
ATOM     10  C6  UNL     1      -8.709  39.126  17.951  0.00  0.00    +0.000 C 
ATOM     11  C7  UNL     1      -8.141  37.953  18.249  0.00  0.00    +0.000 C 
ENDBRANCH   9  10
ENDBRANCH   8   9
ENDBRANCH   7   8
ENDBRANCH   1   7
TORSDOF 6
ENDMDL
MODEL 4
REMARK VINA RESULT:      -3.5      1.303      1.647
REMARK  Name = .\Allicin.pdb
REMARK  7 active torsions:
REMARK  status: ('A' for Active; 'I' for Inactive)
REMARK    1  A    between atoms: C1_1  and  C2_2
REMARK    2  A    between atoms: C2_2  and  O1_10
REMARK    3  A    between atoms: C3_3  and  C4_4
REMARK    4  A    between atoms: C4_4  and  S1_5
REMARK    5  A    between atoms: S1_5  and  S2_6
REMARK    6  A    between atoms: S2_6  and  C5_7
REMARK    7  A    between atoms: C5_7  and  C6_8
REMARK                            x       y       z     vdW  Elec       q    Type
REMARK                         _______ _______ _______ _____ _____    ______ ____
ROOT
ATOM      1  C4  UNL     1      -9.316  41.615  14.464  0.00  0.00    +0.000 C 
ENDROOT
BRANCH   1   4
ATOM      2  C1  UNL     1      -7.711  40.825  11.036  0.00  0.00    +0.000 C 
ATOM      3  C2  UNL     1      -7.904  40.969  12.516  0.00  0.00    +0.000 C 
ATOM      4  C3  UNL     1      -9.055  41.457  12.994  0.00  0.00    +0.000 C 
BRANCH   3   5
ATOM      5  O1  UNL     1      -6.890  40.578  13.391  0.00  0.00    +0.000 OA
ATOM      6  H12 UNL     1      -6.483  39.651  13.351  0.00  0.00    +0.000 HD
ENDBRANCH   3   5
ENDBRANCH   1   4
BRANCH   1   7
ATOM      7  S1  UNL     1     -11.030  41.144  14.878  0.00  0.00    +0.000 S 
BRANCH   7   8
ATOM      8  S2  UNL     1     -10.742  41.307  16.991  0.00  0.00    +0.000 S 
BRANCH   8   9
ATOM      9  C5  UNL     1      -9.444  42.578  16.859  0.00  0.00    +0.000 C 
BRANCH   9  10
ATOM     10  C6  UNL     1      -9.912  43.860  17.485  0.00  0.00    +0.000 C 
ATOM     11  C7  UNL     1     -10.803  44.656  16.886  0.00  0.00    +0.000 C 
ENDBRANCH   9  10
ENDBRANCH   8   9
ENDBRANCH   7   8
ENDBRANCH   1   7
TORSDOF 6
ENDMDL
MODEL 5
REMARK VINA RESULT:      -3.5      2.910      3.588
REMARK  Name = .\Allicin.pdb
REMARK  7 active torsions:
REMARK  status: ('A' for Active; 'I' for Inactive)
REMARK    1  A    between atoms: C1_1  and  C2_2
REMARK    2  A    between atoms: C2_2  and  O1_10
REMARK    3  A    between atoms: C3_3  and  C4_4
REMARK    4  A    between atoms: C4_4  and  S1_5
REMARK    5  A    between atoms: S1_5  and  S2_6
REMARK    6  A    between atoms: S2_6  and  C5_7
REMARK    7  A    between atoms: C5_7  and  C6_8
REMARK                            x       y       z     vdW  Elec       q    Type
REMARK                         _______ _______ _______ _____ _____    ______ ____
ROOT
ATOM      1  C4  UNL     1      -9.289  41.087  12.159  0.00  0.00    +0.000 C 
ENDROOT
BRANCH   1   4
ATOM      2  C1  UNL     1      -6.607  40.889   9.380  0.00  0.00    +0.000 C 
ATOM      3  C2  UNL     1      -7.807  40.574  10.224  0.00  0.00    +0.000 C 
ATOM      4  C3  UNL     1      -8.097  41.341  11.282  0.00  0.00    +0.000 C 
BRANCH   3   5
ATOM      5  O1  UNL     1      -8.624  39.493   9.895  0.00  0.00    +0.000 OA
ATOM      6  H12 UNL     1      -9.449  39.266  10.438  0.00  0.00    +0.000 HD
ENDBRANCH   3   5
ENDBRANCH   1   4
BRANCH   1   7
ATOM      7  S1  UNL     1      -8.878  41.366  13.916  0.00  0.00    +0.000 S 
BRANCH   7   8
ATOM      8  S2  UNL     1     -10.811  40.794  14.632  0.00  0.00    +0.000 S 
BRANCH   8   9
ATOM      9  C5  UNL     1     -11.612  40.935  13.001  0.00  0.00    +0.000 C 
BRANCH   9  10
ATOM     10  C6  UNL     1     -12.889  40.145  12.984  0.00  0.00    +0.000 C 
ATOM     11  C7  UNL     1     -13.023  39.034  12.253  0.00  0.00    +0.000 C 
ENDBRANCH   9  10
ENDBRANCH   8   9
ENDBRANCH   7   8
ENDBRANCH   1   7
TORSDOF 6
ENDMDL
MODEL 6
REMARK VINA RESULT:      -3.5      3.304      5.405
REMARK  Name = .\Allicin.pdb
REMARK  7 active torsions:
REMARK  status: ('A' for Active; 'I' for Inactive)
REMARK    1  A    between atoms: C1_1  and  C2_2
REMARK    2  A    between atoms: C2_2  and  O1_10
REMARK    3  A    between atoms: C3_3  and  C4_4
REMARK    4  A    between atoms: C4_4  and  S1_5
REMARK    5  A    between atoms: S1_5  and  S2_6
REMARK    6  A    between atoms: S2_6  and  C5_7
REMARK    7  A    between atoms: C5_7  and  C6_8
REMARK                            x       y       z     vdW  Elec       q    Type
REMARK                         _______ _______ _______ _____ _____    ______ ____
ROOT
ATOM      1  C4  UNL     1     -11.068  39.864  17.132  0.00  0.00    +0.000 C 
ENDROOT
BRANCH   1   4
ATOM      2  C1  UNL     1      -7.905  37.933  18.238  0.00  0.00    +0.000 C 
ATOM      3  C2  UNL     1      -9.145  38.320  17.488  0.00  0.00    +0.000 C 
ATOM      4  C3  UNL     1      -9.828  39.415  17.848  0.00  0.00    +0.000 C 
BRANCH   3   5
ATOM      5  O1  UNL     1      -9.575  37.550  16.408  0.00  0.00    +0.000 OA
ATOM      6  H12 UNL     1      -9.582  37.917  15.463  0.00  0.00    +0.000 HD
ENDBRANCH   3   5
ENDBRANCH   1   4
BRANCH   1   7
ATOM      7  S1  UNL     1     -10.881  41.569  16.507  0.00  0.00    +0.000 S 
BRANCH   7   8
ATOM      8  S2  UNL     1      -9.982  40.971  14.660  0.00  0.00    +0.000 S 
BRANCH   8   9
ATOM      9  C5  UNL     1     -10.956  42.131  13.648  0.00  0.00    +0.000 C 
BRANCH   9  10
ATOM     10  C6  UNL     1     -10.551  42.023  12.206  0.00  0.00    +0.000 C 
ATOM     11  C7  UNL     1      -9.384  41.484  11.838  0.00  0.00    +0.000 C 
ENDBRANCH   9  10
ENDBRANCH   8   9
ENDBRANCH   7   8
ENDBRANCH   1   7
TORSDOF 6
ENDMDL
MODEL 7
REMARK VINA RESULT:      -3.5      2.714      3.025
REMARK  Name = .\Allicin.pdb
REMARK  7 active torsions:
REMARK  status: ('A' for Active; 'I' for Inactive)
REMARK    1  A    between atoms: C1_1  and  C2_2
REMARK    2  A    between atoms: C2_2  and  O1_10
REMARK    3  A    between atoms: C3_3  and  C4_4
REMARK    4  A    between atoms: C4_4  and  S1_5
REMARK    5  A    between atoms: S1_5  and  S2_6
REMARK    6  A    between atoms: S2_6  and  C5_7
REMARK    7  A    between atoms: C5_7  and  C6_8
REMARK                            x       y       z     vdW  Elec       q    Type
REMARK                         _______ _______ _______ _____ _____    ______ ____
ROOT
ATOM      1  C4  UNL     1      -7.262  41.268  12.881  0.00  0.00    +0.000 C 
ENDROOT
BRANCH   1   4
ATOM      2  C1  UNL     1      -6.819  40.766   9.072  0.00  0.00    +0.000 C 
ATOM      3  C2  UNL     1      -6.624  41.266  10.473  0.00  0.00    +0.000 C 
ATOM      4  C3  UNL     1      -7.412  40.817  11.457  0.00  0.00    +0.000 C 
BRANCH   3   5
ATOM      5  O1  UNL     1      -5.612  42.186  10.748  0.00  0.00    +0.000 OA
ATOM      6  H12 UNL     1      -5.800  43.048  11.245  0.00  0.00    +0.000 HD
ENDBRANCH   3   5
ENDBRANCH   1   4
BRANCH   1   7
ATOM      7  S1  UNL     1      -8.854  41.174  13.769  0.00  0.00    +0.000 S 
BRANCH   7   8
ATOM      8  S2  UNL     1     -10.018  41.805  12.089  0.00  0.00    +0.000 S 
BRANCH   8   9
ATOM      9  C5  UNL     1     -11.524  40.928  12.624  0.00  0.00    +0.000 C 
BRANCH   9  10
ATOM     10  C6  UNL     1     -12.320  41.795  13.556  0.00  0.00    +0.000 C 
ATOM     11  C7  UNL     1     -12.056  43.096  13.712  0.00  0.00    +0.000 C 
ENDBRANCH   9  10
ENDBRANCH   8   9
ENDBRANCH   7   8
ENDBRANCH   1   7
TORSDOF 6
ENDMDL
MODEL 8
REMARK VINA RESULT:      -3.5      2.408      3.626
REMARK  Name = .\Allicin.pdb
REMARK  7 active torsions:
REMARK  status: ('A' for Active; 'I' for Inactive)
REMARK    1  A    between atoms: C1_1  and  C2_2
REMARK    2  A    between atoms: C2_2  and  O1_10
REMARK    3  A    between atoms: C3_3  and  C4_4
REMARK    4  A    between atoms: C4_4  and  S1_5
REMARK    5  A    between atoms: S1_5  and  S2_6
REMARK    6  A    between atoms: S2_6  and  C5_7
REMARK    7  A    between atoms: C5_7  and  C6_8
REMARK                            x       y       z     vdW  Elec       q    Type
REMARK                         _______ _______ _______ _____ _____    ______ ____
ROOT
ATOM      1  C4  UNL     1      -9.326  41.720  14.516  0.00  0.00    +0.000 C 
ENDROOT
BRANCH   1   4
ATOM      2  C1  UNL     1      -7.848  40.793  11.064  0.00  0.00    +0.000 C 
ATOM      3  C2  UNL     1      -7.980  41.013  12.542  0.00  0.00    +0.000 C 
ATOM      4  C3  UNL     1      -9.125  41.488  13.046  0.00  0.00    +0.000 C 
BRANCH   3   5
ATOM      5  O1  UNL     1      -6.914  40.707  13.388  0.00  0.00    +0.000 OA
ATOM      6  H12 UNL     1      -6.782  41.188  14.271  0.00  0.00    +0.000 HD
ENDBRANCH   3   5
ENDBRANCH   1   4
BRANCH   1   7
ATOM      7  S1  UNL     1     -10.486  40.498  15.218  0.00  0.00    +0.000 S 
BRANCH   7   8
ATOM      8  S2  UNL     1     -12.229  41.668  14.805  0.00  0.00    +0.000 S 
BRANCH   8   9
ATOM      9  C5  UNL     1     -13.168  40.277  14.096  0.00  0.00    +0.000 C 
BRANCH   9  10
ATOM     10  C6  UNL     1     -12.591  39.892  12.763  0.00  0.00    +0.000 C 
ATOM     11  C7  UNL     1     -13.124  38.921  12.016  0.00  0.00    +0.000 C 
ENDBRANCH   9  10
ENDBRANCH   8   9
ENDBRANCH   7   8
ENDBRANCH   1   7
TORSDOF 6
ENDMDL
MODEL 9
REMARK VINA RESULT:      -3.5      2.117      4.852
REMARK  Name = .\Allicin.pdb
REMARK  7 active torsions:
REMARK  status: ('A' for Active; 'I' for Inactive)
REMARK    1  A    between atoms: C1_1  and  C2_2
REMARK    2  A    between atoms: C2_2  and  O1_10
REMARK    3  A    between atoms: C3_3  and  C4_4
REMARK    4  A    between atoms: C4_4  and  S1_5
REMARK    5  A    between atoms: S1_5  and  S2_6
REMARK    6  A    between atoms: S2_6  and  C5_7
REMARK    7  A    between atoms: C5_7  and  C6_8
REMARK                            x       y       z     vdW  Elec       q    Type
REMARK                         _______ _______ _______ _____ _____    ______ ____
ROOT
ATOM      1  C4  UNL     1     -10.047  40.336  15.691  0.00  0.00    +0.000 C 
ENDROOT
BRANCH   1   4
ATOM      2  C1  UNL     1      -9.807  43.806  17.382  0.00  0.00    +0.000 C 
ATOM      3  C2  UNL     1      -9.507  42.629  16.501  0.00  0.00    +0.000 C 
ATOM      4  C3  UNL     1     -10.286  41.541  16.554  0.00  0.00    +0.000 C 
BRANCH   3   5
ATOM      5  O1  UNL     1      -8.427  42.678  15.620  0.00  0.00    +0.000 OA
ATOM      6  H12 UNL     1      -8.541  42.490  14.630  0.00  0.00    +0.000 HD
ENDBRANCH   3   5
ENDBRANCH   1   4
BRANCH   1   7
ATOM      7  S1  UNL     1     -11.619  39.502  15.284  0.00  0.00    +0.000 S 
BRANCH   7   8
ATOM      8  S2  UNL     1     -12.484  41.222  14.352  0.00  0.00    +0.000 S 
BRANCH   8   9
ATOM      9  C5  UNL     1     -11.785  40.859  12.710  0.00  0.00    +0.000 C 
BRANCH   9  10
ATOM     10  C6  UNL     1     -10.787  41.915  12.330  0.00  0.00    +0.000 C 
ATOM     11  C7  UNL     1      -9.545  41.608  11.944  0.00  0.00    +0.000 C 
ENDBRANCH   9  10
ENDBRANCH   8   9
ENDBRANCH   7   8
ENDBRANCH   1   7
TORSDOF 6
ENDMDL
