MODEL 1
REMARK VINA RESULT:      -3.1      0.000      0.000
REMARK  Name = .\Allicin.pdb
REMARK  7 active torsions:
REMARK  status: ('A' for Active; 'I' for Inactive)
REMARK    1  A    between atoms: C1_1  and  C2_2
REMARK    2  A    between atoms: C2_2  and  O1_10
REMARK    3  A    between atoms: C3_3  and  C4_4
REMARK    4  A    between atoms: C4_4  and  S1_5
REMARK    5  A    between atoms: S1_5  and  S2_6
REMARK    6  A    between atoms: S2_6  and  C5_7
REMARK    7  A    between atoms: C5_7  and  C6_8
REMARK                            x       y       z     vdW  Elec       q    Type
REMARK                         _______ _______ _______ _____ _____    ______ ____
ROOT
ATOM      1  C4  UNL     1       0.400  92.049 139.922  0.00  0.00    +0.000 C 
ENDROOT
BRANCH   1   4
ATOM      2  C1  UNL     1       3.450  94.377 140.401  0.00  0.00    +0.000 C 
ATOM      3  C2  UNL     1       2.480  93.414 139.785  0.00  0.00    +0.000 C 
ATOM      4  C3  UNL     1       1.414  93.002 140.484  0.00  0.00    +0.000 C 
BRANCH   3   5
ATOM      5  O1  UNL     1       2.682  92.961 138.481  0.00  0.00    +0.000 OA
ATOM      6  H12 UNL     1       2.096  92.242 138.073  0.00  0.00    +0.000 HD
ENDBRANCH   3   5
ENDBRANCH   1   4
BRANCH   1   7
ATOM      7  S1  UNL     1       0.085  90.673 141.079  0.00  0.00    +0.000 S 
BRANCH   7   8
ATOM      8  S2  UNL     1       0.619  91.794 142.820  0.00  0.00    +0.000 S 
BRANCH   8   9
ATOM      9  C5  UNL     1       1.680  90.483 143.511  0.00  0.00    +0.000 C 
BRANCH   9  10
ATOM     10  C6  UNL     1       2.982  90.427 142.763  0.00  0.00    +0.000 C 
ATOM     11  C7  UNL     1       3.891  91.402 142.851  0.00  0.00    +0.000 C 
ENDBRANCH   9  10
ENDBRANCH   8   9
ENDBRANCH   7   8
ENDBRANCH   1   7
TORSDOF 6
ENDMDL
MODEL 2
REMARK VINA RESULT:      -3.0      1.958      2.754
REMARK  Name = .\Allicin.pdb
REMARK  7 active torsions:
REMARK  status: ('A' for Active; 'I' for Inactive)
REMARK    1  A    between atoms: C1_1  and  C2_2
REMARK    2  A    between atoms: C2_2  and  O1_10
REMARK    3  A    between atoms: C3_3  and  C4_4
REMARK    4  A    between atoms: C4_4  and  S1_5
REMARK    5  A    between atoms: S1_5  and  S2_6
REMARK    6  A    between atoms: S2_6  and  C5_7
REMARK    7  A    between atoms: C5_7  and  C6_8
REMARK                            x       y       z     vdW  Elec       q    Type
REMARK                         _______ _______ _______ _____ _____    ______ ____
ROOT
ATOM      1  C4  UNL     1       2.917  93.196 141.125  0.00  0.00    +0.000 C 
ENDROOT
BRANCH   1   4
ATOM      2  C1  UNL     1       2.732  94.910 137.663  0.00  0.00    +0.000 C 
ATOM      3  C2  UNL     1       2.672  93.865 138.738  0.00  0.00    +0.000 C 
ATOM      4  C3  UNL     1       2.969  94.191 140.002  0.00  0.00    +0.000 C 
BRANCH   3   5
ATOM      5  O1  UNL     1       2.293  92.561 138.420  0.00  0.00    +0.000 OA
ATOM      6  H12 UNL     1       1.541  92.092 138.912  0.00  0.00    +0.000 HD
ENDBRANCH   3   5
ENDBRANCH   1   4
BRANCH   1   7
ATOM      7  S1  UNL     1       2.108  93.913 142.596  0.00  0.00    +0.000 S 
BRANCH   7   8
ATOM      8  S2  UNL     1       0.143  93.292 142.024  0.00  0.00    +0.000 S 
BRANCH   8   9
ATOM      9  C5  UNL     1       0.220  91.718 142.939  0.00  0.00    +0.000 C 
BRANCH   9  10
ATOM     10  C6  UNL     1      -0.072  90.571 142.016  0.00  0.00    +0.000 C 
ATOM     11  C7  UNL     1       0.193  90.631 140.707  0.00  0.00    +0.000 C 
ENDBRANCH   9  10
ENDBRANCH   8   9
ENDBRANCH   7   8
ENDBRANCH   1   7
TORSDOF 6
ENDMDL
MODEL 3
REMARK VINA RESULT:      -2.9      2.026      2.721
REMARK  Name = .\Allicin.pdb
REMARK  7 active torsions:
REMARK  status: ('A' for Active; 'I' for Inactive)
REMARK    1  A    between atoms: C1_1  and  C2_2
REMARK    2  A    between atoms: C2_2  and  O1_10
REMARK    3  A    between atoms: C3_3  and  C4_4
REMARK    4  A    between atoms: C4_4  and  S1_5
REMARK    5  A    between atoms: S1_5  and  S2_6
REMARK    6  A    between atoms: S2_6  and  C5_7
REMARK    7  A    between atoms: C5_7  and  C6_8
REMARK                            x       y       z     vdW  Elec       q    Type
REMARK                         _______ _______ _______ _____ _____    ______ ____
ROOT
ATOM      1  C4  UNL     1       0.419  92.040 139.952  0.00  0.00    +0.000 C 
ENDROOT
BRANCH   1   4
ATOM      2  C1  UNL     1       3.428  94.460 140.162  0.00  0.00    +0.000 C 
ATOM      3  C2  UNL     1       2.462  93.433 139.650  0.00  0.00    +0.000 C 
ATOM      4  C3  UNL     1       1.427  93.053 140.410  0.00  0.00    +0.000 C 
BRANCH   3   5
ATOM      5  O1  UNL     1       2.636  92.888 138.378  0.00  0.00    +0.000 OA
ATOM      6  H12 UNL     1       2.361  91.935 138.166  0.00  0.00    +0.000 HD
ENDBRANCH   3   5
ENDBRANCH   1   4
BRANCH   1   7
ATOM      7  S1  UNL     1       0.047  90.842 141.279  0.00  0.00    +0.000 S 
BRANCH   7   8
ATOM      8  S2  UNL     1       0.741  92.116 142.852  0.00  0.00    +0.000 S 
BRANCH   8   9
ATOM      9  C5  UNL     1      -0.933  92.554 143.425  0.00  0.00    +0.000 C 
BRANCH   9  10
ATOM     10  C6  UNL     1      -1.337  93.887 142.862  0.00  0.00    +0.000 C 
ATOM     11  C7  UNL     1      -0.519  94.943 142.888  0.00  0.00    +0.000 C 
ENDBRANCH   9  10
ENDBRANCH   8   9
ENDBRANCH   7   8
ENDBRANCH   1   7
TORSDOF 6
ENDMDL
MODEL 4
REMARK VINA RESULT:      -2.9      5.010      6.802
REMARK  Name = .\Allicin.pdb
REMARK  7 active torsions:
REMARK  status: ('A' for Active; 'I' for Inactive)
REMARK    1  A    between atoms: C1_1  and  C2_2
REMARK    2  A    between atoms: C2_2  and  O1_10
REMARK    3  A    between atoms: C3_3  and  C4_4
REMARK    4  A    between atoms: C4_4  and  S1_5
REMARK    5  A    between atoms: S1_5  and  S2_6
REMARK    6  A    between atoms: S2_6  and  C5_7
REMARK    7  A    between atoms: C5_7  and  C6_8
REMARK                            x       y       z     vdW  Elec       q    Type
REMARK                         _______ _______ _______ _____ _____    ______ ____
ROOT
ATOM      1  C4  UNL     1       2.956  95.429 137.338  0.00  0.00    +0.000 C 
ENDROOT
BRANCH   1   4
ATOM      2  C1  UNL     1       3.155  93.700 140.792  0.00  0.00    +0.000 C 
ATOM      3  C2  UNL     1       2.938  93.925 139.325  0.00  0.00    +0.000 C 
ATOM      4  C3  UNL     1       3.144  95.140 138.799  0.00  0.00    +0.000 C 
BRANCH   3   5
ATOM      5  O1  UNL     1       2.537  92.867 138.510  0.00  0.00    +0.000 OA
ATOM      6  H12 UNL     1       1.594  92.806 138.144  0.00  0.00    +0.000 HD
ENDBRANCH   3   5
ENDBRANCH   1   4
BRANCH   1   7
ATOM      7  S1  UNL     1       2.755  97.220 137.047  0.00  0.00    +0.000 S 
BRANCH   7   8
ATOM      8  S2  UNL     1       2.256  96.997 134.979  0.00  0.00    +0.000 S 
BRANCH   8   9
ATOM      9  C5  UNL     1       0.532  96.501 135.304  0.00  0.00    +0.000 C 
BRANCH   9  10
ATOM     10  C6  UNL     1       0.299  95.100 134.817  0.00  0.00    +0.000 C 
ATOM     11  C7  UNL     1       0.315  94.052 135.645  0.00  0.00    +0.000 C 
ENDBRANCH   9  10
ENDBRANCH   8   9
ENDBRANCH   7   8
ENDBRANCH   1   7
TORSDOF 6
ENDMDL
MODEL 5
REMARK VINA RESULT:      -2.9      3.014      3.998
REMARK  Name = .\Allicin.pdb
REMARK  7 active torsions:
REMARK  status: ('A' for Active; 'I' for Inactive)
REMARK    1  A    between atoms: C1_1  and  C2_2
REMARK    2  A    between atoms: C2_2  and  O1_10
REMARK    3  A    between atoms: C3_3  and  C4_4
REMARK    4  A    between atoms: C4_4  and  S1_5
REMARK    5  A    between atoms: S1_5  and  S2_6
REMARK    6  A    between atoms: S2_6  and  C5_7
REMARK    7  A    between atoms: C5_7  and  C6_8
REMARK                            x       y       z     vdW  Elec       q    Type
REMARK                         _______ _______ _______ _____ _____    ______ ____
ROOT
ATOM      1  C4  UNL     1       2.716  93.991 138.590  0.00  0.00    +0.000 C 
ENDROOT
BRANCH   1   4
ATOM      2  C1  UNL     1       2.225  96.450 135.646  0.00  0.00    +0.000 C 
ATOM      3  C2  UNL     1       2.143  95.219 136.500  0.00  0.00    +0.000 C 
ATOM      4  C3  UNL     1       2.769  95.186 137.683  0.00  0.00    +0.000 C 
BRANCH   3   5
ATOM      5  O1  UNL     1       1.402  94.120 136.066  0.00  0.00    +0.000 OA
ATOM      6  H12 UNL     1       0.671  93.714 136.639  0.00  0.00    +0.000 HD
ENDBRANCH   3   5
ENDBRANCH   1   4
BRANCH   1   7
ATOM      7  S1  UNL     1       3.389  94.392 140.239  0.00  0.00    +0.000 S 
BRANCH   7   8
ATOM      8  S2  UNL     1       2.270  92.874 141.249  0.00  0.00    +0.000 S 
BRANCH   8   9
ATOM      9  C5  UNL     1       1.143  92.576 139.848  0.00  0.00    +0.000 C 
BRANCH   9  10
ATOM     10  C6  UNL     1       0.085  91.584 140.241  0.00  0.00    +0.000 C 
ATOM     11  C7  UNL     1       0.382  90.451 140.883  0.00  0.00    +0.000 C 
ENDBRANCH   9  10
ENDBRANCH   8   9
ENDBRANCH   7   8
ENDBRANCH   1   7
TORSDOF 6
ENDMDL
MODEL 6
REMARK VINA RESULT:      -2.7      1.865      2.776
REMARK  Name = .\Allicin.pdb
REMARK  7 active torsions:
REMARK  status: ('A' for Active; 'I' for Inactive)
REMARK    1  A    between atoms: C1_1  and  C2_2
REMARK    2  A    between atoms: C2_2  and  O1_10
REMARK    3  A    between atoms: C3_3  and  C4_4
REMARK    4  A    between atoms: C4_4  and  S1_5
REMARK    5  A    between atoms: S1_5  and  S2_6
REMARK    6  A    between atoms: S2_6  and  C5_7
REMARK    7  A    between atoms: C5_7  and  C6_8
REMARK                            x       y       z     vdW  Elec       q    Type
REMARK                         _______ _______ _______ _____ _____    ______ ____
ROOT
ATOM      1  C4  UNL     1       1.201  92.054 140.798  0.00  0.00    +0.000 C 
ENDROOT
BRANCH   1   4
ATOM      2  C1  UNL     1       0.793  93.192 137.125  0.00  0.00    +0.000 C 
ATOM      3  C2  UNL     1       1.415  92.839 138.443  0.00  0.00    +0.000 C 
ATOM      4  C3  UNL     1       0.641  92.433 139.458  0.00  0.00    +0.000 C 
BRANCH   3   5
ATOM      5  O1  UNL     1       2.798  92.919 138.604  0.00  0.00    +0.000 OA
ATOM      6  H12 UNL     1       3.239  92.750 139.501  0.00  0.00    +0.000 HD
ENDBRANCH   3   5
ENDBRANCH   1   4
BRANCH   1   7
ATOM      7  S1  UNL     1       0.724  93.270 142.073  0.00  0.00    +0.000 S 
BRANCH   7   8
ATOM      8  S2  UNL     1       2.348  92.787 143.380  0.00  0.00    +0.000 S 
BRANCH   8   9
ATOM      9  C5  UNL     1       3.556  92.580 142.031  0.00  0.00    +0.000 C 
BRANCH   9  10
ATOM     10  C6  UNL     1       4.466  93.773 141.967  0.00  0.00    +0.000 C 
ATOM     11  C7  UNL     1       4.175  94.845 141.223  0.00  0.00    +0.000 C 
ENDBRANCH   9  10
ENDBRANCH   8   9
ENDBRANCH   7   8
ENDBRANCH   1   7
TORSDOF 6
ENDMDL
MODEL 7
REMARK VINA RESULT:      -2.7      6.043      7.930
REMARK  Name = .\Allicin.pdb
REMARK  7 active torsions:
REMARK  status: ('A' for Active; 'I' for Inactive)
REMARK    1  A    between atoms: C1_1  and  C2_2
REMARK    2  A    between atoms: C2_2  and  O1_10
REMARK    3  A    between atoms: C3_3  and  C4_4
REMARK    4  A    between atoms: C4_4  and  S1_5
REMARK    5  A    between atoms: S1_5  and  S2_6
REMARK    6  A    between atoms: S2_6  and  C5_7
REMARK    7  A    between atoms: C5_7  and  C6_8
REMARK                            x       y       z     vdW  Elec       q    Type
REMARK                         _______ _______ _______ _____ _____    ______ ____
ROOT
ATOM      1  C4  UNL     1       2.296  95.658 136.276  0.00  0.00    +0.000 C 
ENDROOT
BRANCH   1   4
ATOM      2  C1  UNL     1       3.078  93.953 139.658  0.00  0.00    +0.000 C 
ATOM      3  C2  UNL     1       2.515  94.210 138.292  0.00  0.00    +0.000 C 
ATOM      4  C3  UNL     1       2.816  95.346 137.650  0.00  0.00    +0.000 C 
BRANCH   3   5
ATOM      5  O1  UNL     1       1.692  93.259 137.688  0.00  0.00    +0.000 OA
ATOM      6  H12 UNL     1       0.686  93.277 137.805  0.00  0.00    +0.000 HD
ENDBRANCH   3   5
ENDBRANCH   1   4
BRANCH   1   7
ATOM      7  S1  UNL     1       1.925  97.438 136.108  0.00  0.00    +0.000 S 
BRANCH   7   8
ATOM      8  S2  UNL     1       1.561  97.333 134.002  0.00  0.00    +0.000 S 
BRANCH   8   9
ATOM      9  C5  UNL     1      -0.207  97.754 134.144  0.00  0.00    +0.000 C 
BRANCH   9  10
ATOM     10  C6  UNL     1      -0.543  98.091 135.569  0.00  0.00    +0.000 C 
ATOM     11  C7  UNL     1      -1.798  98.330 135.961  0.00  0.00    +0.000 C 
ENDBRANCH   9  10
ENDBRANCH   8   9
ENDBRANCH   7   8
ENDBRANCH   1   7
TORSDOF 6
ENDMDL
MODEL 8
REMARK VINA RESULT:      -2.7      3.722      5.659
REMARK  Name = .\Allicin.pdb
REMARK  7 active torsions:
REMARK  status: ('A' for Active; 'I' for Inactive)
REMARK    1  A    between atoms: C1_1  and  C2_2
REMARK    2  A    between atoms: C2_2  and  O1_10
REMARK    3  A    between atoms: C3_3  and  C4_4
REMARK    4  A    between atoms: C4_4  and  S1_5
REMARK    5  A    between atoms: S1_5  and  S2_6
REMARK    6  A    between atoms: S2_6  and  C5_7
REMARK    7  A    between atoms: C5_7  and  C6_8
REMARK                            x       y       z     vdW  Elec       q    Type
REMARK                         _______ _______ _______ _____ _____    ______ ____
ROOT
ATOM      1  C4  UNL     1       1.393  92.957 139.493  0.00  0.00    +0.000 C 
ENDROOT
BRANCH   1   4
ATOM      2  C1  UNL     1       0.168  91.217 142.723  0.00  0.00    +0.000 C 
ATOM      3  C2  UNL     1       0.303  91.605 141.280  0.00  0.00    +0.000 C 
ATOM      4  C3  UNL     1       1.200  92.532 140.920  0.00  0.00    +0.000 C 
BRANCH   3   5
ATOM      5  O1  UNL     1      -0.495  90.989 140.316  0.00  0.00    +0.000 OA
ATOM      6  H12 UNL     1      -0.120  90.708 139.418  0.00  0.00    +0.000 HD
ENDBRANCH   3   5
ENDBRANCH   1   4
BRANCH   1   7
ATOM      7  S1  UNL     1       2.943  93.899 139.296  0.00  0.00    +0.000 S 
BRANCH   7   8
ATOM      8  S2  UNL     1       2.374  94.767 137.425  0.00  0.00    +0.000 S 
BRANCH   8   9
ATOM      9  C5  UNL     1       1.050  93.556 137.106  0.00  0.00    +0.000 C 
BRANCH   9  10
ATOM     10  C6  UNL     1       0.378  93.860 135.798  0.00  0.00    +0.000 C 
ATOM     11  C7  UNL     1       0.503  95.048 135.199  0.00  0.00    +0.000 C 
ENDBRANCH   9  10
ENDBRANCH   8   9
ENDBRANCH   7   8
ENDBRANCH   1   7
TORSDOF 6
ENDMDL
MODEL 9
REMARK VINA RESULT:      -2.7      6.386      7.564
REMARK  Name = .\Allicin.pdb
REMARK  7 active torsions:
REMARK  status: ('A' for Active; 'I' for Inactive)
REMARK    1  A    between atoms: C1_1  and  C2_2
REMARK    2  A    between atoms: C2_2  and  O1_10
REMARK    3  A    between atoms: C3_3  and  C4_4
REMARK    4  A    between atoms: C4_4  and  S1_5
REMARK    5  A    between atoms: S1_5  and  S2_6
REMARK    6  A    between atoms: S2_6  and  C5_7
REMARK    7  A    between atoms: C5_7  and  C6_8
REMARK                            x       y       z     vdW  Elec       q    Type
REMARK                         _______ _______ _______ _____ _____    ______ ____
ROOT
ATOM      1  C4  UNL     1       1.365  97.488 134.909  0.00  0.00    +0.000 C 
ENDROOT
BRANCH   1   4
ATOM      2  C1  UNL     1       0.121  93.927 135.765  0.00  0.00    +0.000 C 
ATOM      3  C2  UNL     1       1.030  95.082 135.466  0.00  0.00    +0.000 C 
ATOM      4  C3  UNL     1       0.511  96.289 135.204  0.00  0.00    +0.000 C 
BRANCH   3   5
ATOM      5  O1  UNL     1       2.413  94.901 135.478  0.00  0.00    +0.000 OA
ATOM      6  H12 UNL     1       2.863  94.210 134.889  0.00  0.00    +0.000 HD
ENDBRANCH   3   5
ENDBRANCH   1   4
BRANCH   1   7
ATOM      7  S1  UNL     1       1.513  98.561 136.378  0.00  0.00    +0.000 S 
BRANCH   7   8
ATOM      8  S2  UNL     1       3.613  98.889 136.134  0.00  0.00    +0.000 S 
BRANCH   8   9
ATOM      9  C5  UNL     1       4.003  98.620 137.894  0.00  0.00    +0.000 C 
BRANCH   9  10
ATOM     10  C6  UNL     1       4.633  97.271 138.081  0.00  0.00    +0.000 C 
ATOM     11  C7  UNL     1       3.912  96.191 138.397  0.00  0.00    +0.000 C 
ENDBRANCH   9  10
ENDBRANCH   8   9
ENDBRANCH   7   8
ENDBRANCH   1   7
TORSDOF 6
ENDMDL
