MODEL 1
REMARK VINA RESULT:      -3.4      0.000      0.000
REMARK  Name = .\Allicin.pdb
REMARK  7 active torsions:
REMARK  status: ('A' for Active; 'I' for Inactive)
REMARK    1  A    between atoms: C1_1  and  C2_2
REMARK    2  A    between atoms: C2_2  and  O1_10
REMARK    3  A    between atoms: C3_3  and  C4_4
REMARK    4  A    between atoms: C4_4  and  S1_5
REMARK    5  A    between atoms: S1_5  and  S2_6
REMARK    6  A    between atoms: S2_6  and  C5_7
REMARK    7  A    between atoms: C5_7  and  C6_8
REMARK                            x       y       z     vdW  Elec       q    Type
REMARK                         _______ _______ _______ _____ _____    ______ ____
ROOT
ATOM      1  C4  UNL     1     -18.211  82.271 113.723  0.00  0.00    +0.000 C 
ENDROOT
BRANCH   1   4
ATOM      2  C1  UNL     1     -20.977  80.586 111.609  0.00  0.00    +0.000 C 
ATOM      3  C2  UNL     1     -19.629  80.954 112.153  0.00  0.00    +0.000 C 
ATOM      4  C3  UNL     1     -19.529  81.867 113.127  0.00  0.00    +0.000 C 
BRANCH   3   5
ATOM      5  O1  UNL     1     -18.484  80.334 111.653  0.00  0.00    +0.000 OA
ATOM      6  H12 UNL     1     -17.930  80.756 110.917  0.00  0.00    +0.000 HD
ENDBRANCH   3   5
ENDBRANCH   1   4
BRANCH   1   7
ATOM      7  S1  UNL     1     -18.397  82.705 115.486  0.00  0.00    +0.000 S 
BRANCH   7   8
ATOM      8  S2  UNL     1     -20.378  81.914 115.644  0.00  0.00    +0.000 S 
BRANCH   8   9
ATOM      9  C5  UNL     1     -19.885  80.508 116.693  0.00  0.00    +0.000 C 
BRANCH   9  10
ATOM     10  C6  UNL     1     -19.637  79.295 115.844  0.00  0.00    +0.000 C 
ATOM     11  C7  UNL     1     -18.402  78.908 115.507  0.00  0.00    +0.000 C 
ENDBRANCH   9  10
ENDBRANCH   8   9
ENDBRANCH   7   8
ENDBRANCH   1   7
TORSDOF 6
ENDMDL
MODEL 2
REMARK VINA RESULT:      -3.3      2.300      4.489
REMARK  Name = .\Allicin.pdb
REMARK  7 active torsions:
REMARK  status: ('A' for Active; 'I' for Inactive)
REMARK    1  A    between atoms: C1_1  and  C2_2
REMARK    2  A    between atoms: C2_2  and  O1_10
REMARK    3  A    between atoms: C3_3  and  C4_4
REMARK    4  A    between atoms: C4_4  and  S1_5
REMARK    5  A    between atoms: S1_5  and  S2_6
REMARK    6  A    between atoms: S2_6  and  C5_7
REMARK    7  A    between atoms: C5_7  and  C6_8
REMARK                            x       y       z     vdW  Elec       q    Type
REMARK                         _______ _______ _______ _____ _____    ______ ____
ROOT
ATOM      1  C4  UNL     1     -18.759  80.446 114.190  0.00  0.00    +0.000 C 
ENDROOT
BRANCH   1   4
ATOM      2  C1  UNL     1     -20.749  79.112 117.226  0.00  0.00    +0.000 C 
ATOM      3  C2  UNL     1     -19.615  79.428 116.296  0.00  0.00    +0.000 C 
ATOM      4  C3  UNL     1     -19.851  80.089 115.156  0.00  0.00    +0.000 C 
BRANCH   3   5
ATOM      5  O1  UNL     1     -18.316  79.046 116.630  0.00  0.00    +0.000 OA
ATOM      6  H12 UNL     1     -18.124  78.469 117.440  0.00  0.00    +0.000 HD
ENDBRANCH   3   5
ENDBRANCH   1   4
BRANCH   1   7
ATOM      7  S1  UNL     1     -18.415  82.238 114.225  0.00  0.00    +0.000 S 
BRANCH   7   8
ATOM      8  S2  UNL     1     -17.578  82.286 112.257  0.00  0.00    +0.000 S 
BRANCH   8   9
ATOM      9  C5  UNL     1     -18.969  81.392 111.491  0.00  0.00    +0.000 C 
BRANCH   9  10
ATOM     10  C6  UNL     1     -20.185  82.272 111.445  0.00  0.00    +0.000 C 
ATOM     11  C7  UNL     1     -21.413  81.794 111.669  0.00  0.00    +0.000 C 
ENDBRANCH   9  10
ENDBRANCH   8   9
ENDBRANCH   7   8
ENDBRANCH   1   7
TORSDOF 6
ENDMDL
MODEL 3
REMARK VINA RESULT:      -3.2      1.093      1.954
REMARK  Name = .\Allicin.pdb
REMARK  7 active torsions:
REMARK  status: ('A' for Active; 'I' for Inactive)
REMARK    1  A    between atoms: C1_1  and  C2_2
REMARK    2  A    between atoms: C2_2  and  O1_10
REMARK    3  A    between atoms: C3_3  and  C4_4
REMARK    4  A    between atoms: C4_4  and  S1_5
REMARK    5  A    between atoms: S1_5  and  S2_6
REMARK    6  A    between atoms: S2_6  and  C5_7
REMARK    7  A    between atoms: C5_7  and  C6_8
REMARK                            x       y       z     vdW  Elec       q    Type
REMARK                         _______ _______ _______ _____ _____    ______ ____
ROOT
ATOM      1  C4  UNL     1     -20.771  81.553 113.377  0.00  0.00    +0.000 C 
ENDROOT
BRANCH   1   4
ATOM      2  C1  UNL     1     -17.127  82.148 112.228  0.00  0.00    +0.000 C 
ATOM      3  C2  UNL     1     -18.465  81.502 112.437  0.00  0.00    +0.000 C 
ATOM      4  C3  UNL     1     -19.409  82.139 113.141  0.00  0.00    +0.000 C 
BRANCH   3   5
ATOM      5  O1  UNL     1     -18.726  80.248 111.885  0.00  0.00    +0.000 OA
ATOM      6  H12 UNL     1     -18.096  79.466 112.023  0.00  0.00    +0.000 HD
ENDBRANCH   3   5
ENDBRANCH   1   4
BRANCH   1   7
ATOM      7  S1  UNL     1     -21.493  82.182 114.932  0.00  0.00    +0.000 S 
BRANCH   7   8
ATOM      8  S2  UNL     1     -19.724  81.840 116.086  0.00  0.00    +0.000 S 
BRANCH   8   9
ATOM      9  C5  UNL     1     -20.296  80.242 116.750  0.00  0.00    +0.000 C 
BRANCH   9  10
ATOM     10  C6  UNL     1     -19.478  79.122 116.175  0.00  0.00    +0.000 C 
ATOM     11  C7  UNL     1     -18.357  79.348 115.483  0.00  0.00    +0.000 C 
ENDBRANCH   9  10
ENDBRANCH   8   9
ENDBRANCH   7   8
ENDBRANCH   1   7
TORSDOF 6
ENDMDL
MODEL 4
REMARK VINA RESULT:      -3.2      2.603      4.375
REMARK  Name = .\Allicin.pdb
REMARK  7 active torsions:
REMARK  status: ('A' for Active; 'I' for Inactive)
REMARK    1  A    between atoms: C1_1  and  C2_2
REMARK    2  A    between atoms: C2_2  and  O1_10
REMARK    3  A    between atoms: C3_3  and  C4_4
REMARK    4  A    between atoms: C4_4  and  S1_5
REMARK    5  A    between atoms: S1_5  and  S2_6
REMARK    6  A    between atoms: S2_6  and  C5_7
REMARK    7  A    between atoms: C5_7  and  C6_8
REMARK                            x       y       z     vdW  Elec       q    Type
REMARK                         _______ _______ _______ _____ _____    ______ ____
ROOT
ATOM      1  C4  UNL     1     -20.903  81.583 114.738  0.00  0.00    +0.000 C 
ENDROOT
BRANCH   1   4
ATOM      2  C1  UNL     1     -18.292  78.895 115.695  0.00  0.00    +0.000 C 
ATOM      3  C2  UNL     1     -19.269  80.029 115.797  0.00  0.00    +0.000 C 
ATOM      4  C3  UNL     1     -19.905  80.462 114.702  0.00  0.00    +0.000 C 
BRANCH   3   5
ATOM      5  O1  UNL     1     -19.524  80.618 117.036  0.00  0.00    +0.000 OA
ATOM      6  H12 UNL     1     -18.824  80.636 117.769  0.00  0.00    +0.000 HD
ENDBRANCH   3   5
ENDBRANCH   1   4
BRANCH   1   7
ATOM      7  S1  UNL     1     -21.291  82.168 113.053  0.00  0.00    +0.000 S 
BRANCH   7   8
ATOM      8  S2  UNL     1     -20.009  80.754 112.087  0.00  0.00    +0.000 S 
BRANCH   8   9
ATOM      9  C5  UNL     1     -18.882  82.021 111.419  0.00  0.00    +0.000 C 
BRANCH   9  10
ATOM     10  C6  UNL     1     -17.625  82.076 112.238  0.00  0.00    +0.000 C 
ATOM     11  C7  UNL     1     -17.474  82.941 113.245  0.00  0.00    +0.000 C 
ENDBRANCH   9  10
ENDBRANCH   8   9
ENDBRANCH   7   8
ENDBRANCH   1   7
TORSDOF 6
ENDMDL
MODEL 5
REMARK VINA RESULT:      -3.2      1.976      2.669
REMARK  Name = .\Allicin.pdb
REMARK  7 active torsions:
REMARK  status: ('A' for Active; 'I' for Inactive)
REMARK    1  A    between atoms: C1_1  and  C2_2
REMARK    2  A    between atoms: C2_2  and  O1_10
REMARK    3  A    between atoms: C3_3  and  C4_4
REMARK    4  A    between atoms: C4_4  and  S1_5
REMARK    5  A    between atoms: S1_5  and  S2_6
REMARK    6  A    between atoms: S2_6  and  C5_7
REMARK    7  A    between atoms: C5_7  and  C6_8
REMARK                            x       y       z     vdW  Elec       q    Type
REMARK                         _______ _______ _______ _____ _____    ______ ____
ROOT
ATOM      1  C4  UNL     1     -19.600  80.251 114.161  0.00  0.00    +0.000 C 
ENDROOT
BRANCH   1   4
ATOM      2  C1  UNL     1     -17.100  82.538 112.296  0.00  0.00    +0.000 C 
ATOM      3  C2  UNL     1     -18.083  81.442 112.584  0.00  0.00    +0.000 C 
ATOM      4  C3  UNL     1     -18.604  81.318 113.811  0.00  0.00    +0.000 C 
BRANCH   3   5
ATOM      5  O1  UNL     1     -18.462  80.564 111.569  0.00  0.00    +0.000 OA
ATOM      6  H12 UNL     1     -19.122  80.837 110.850  0.00  0.00    +0.000 HD
ENDBRANCH   3   5
ENDBRANCH   1   4
BRANCH   1   7
ATOM      7  S1  UNL     1     -19.351  79.660 115.870  0.00  0.00    +0.000 S 
BRANCH   7   8
ATOM      8  S2  UNL     1     -20.335  81.332 116.770  0.00  0.00    +0.000 S 
BRANCH   8   9
ATOM      9  C5  UNL     1     -21.482  80.309 117.750  0.00  0.00    +0.000 C 
BRANCH   9  10
ATOM     10  C6  UNL     1     -21.171  78.853 117.552  0.00  0.00    +0.000 C 
ATOM     11  C7  UNL     1     -21.915  77.890 118.104  0.00  0.00    +0.000 C 
ENDBRANCH   9  10
ENDBRANCH   8   9
ENDBRANCH   7   8
ENDBRANCH   1   7
TORSDOF 6
ENDMDL
MODEL 6
REMARK VINA RESULT:      -3.2      2.502      4.809
REMARK  Name = .\Allicin.pdb
REMARK  7 active torsions:
REMARK  status: ('A' for Active; 'I' for Inactive)
REMARK    1  A    between atoms: C1_1  and  C2_2
REMARK    2  A    between atoms: C2_2  and  O1_10
REMARK    3  A    between atoms: C3_3  and  C4_4
REMARK    4  A    between atoms: C4_4  and  S1_5
REMARK    5  A    between atoms: S1_5  and  S2_6
REMARK    6  A    between atoms: S2_6  and  C5_7
REMARK    7  A    between atoms: C5_7  and  C6_8
REMARK                            x       y       z     vdW  Elec       q    Type
REMARK                         _______ _______ _______ _____ _____    ______ ____
ROOT
ATOM      1  C4  UNL     1     -18.549  79.670 115.257  0.00  0.00    +0.000 C 
ENDROOT
BRANCH   1   4
ATOM      2  C1  UNL     1     -21.374  79.023 117.818  0.00  0.00    +0.000 C 
ATOM      3  C2  UNL     1     -20.253  79.687 117.075  0.00  0.00    +0.000 C 
ATOM      4  C3  UNL     1     -19.668  79.056 116.049  0.00  0.00    +0.000 C 
BRANCH   3   5
ATOM      5  O1  UNL     1     -19.834  80.964 117.445  0.00  0.00    +0.000 OA
ATOM      6  H12 UNL     1     -20.271  81.466 118.209  0.00  0.00    +0.000 HD
ENDBRANCH   3   5
ENDBRANCH   1   4
BRANCH   1   7
ATOM      7  S1  UNL     1     -19.199  80.670 113.876  0.00  0.00    +0.000 S 
BRANCH   7   8
ATOM      8  S2  UNL     1     -18.196  82.460 114.481  0.00  0.00    +0.000 S 
BRANCH   8   9
ATOM      9  C5  UNL     1     -17.485  82.787 112.835  0.00  0.00    +0.000 C 
BRANCH   9  10
ATOM     10  C6  UNL     1     -18.212  81.987 111.792  0.00  0.00    +0.000 C 
ATOM     11  C7  UNL     1     -18.448  82.470 110.569  0.00  0.00    +0.000 C 
ENDBRANCH   9  10
ENDBRANCH   8   9
ENDBRANCH   7   8
ENDBRANCH   1   7
TORSDOF 6
ENDMDL
MODEL 7
REMARK VINA RESULT:      -3.1      2.037      2.919
REMARK  Name = .\Allicin.pdb
REMARK  7 active torsions:
REMARK  status: ('A' for Active; 'I' for Inactive)
REMARK    1  A    between atoms: C1_1  and  C2_2
REMARK    2  A    between atoms: C2_2  and  O1_10
REMARK    3  A    between atoms: C3_3  and  C4_4
REMARK    4  A    between atoms: C4_4  and  S1_5
REMARK    5  A    between atoms: S1_5  and  S2_6
REMARK    6  A    between atoms: S2_6  and  C5_7
REMARK    7  A    between atoms: C5_7  and  C6_8
REMARK                            x       y       z     vdW  Elec       q    Type
REMARK                         _______ _______ _______ _____ _____    ______ ____
ROOT
ATOM      1  C4  UNL     1     -19.304  82.013 111.245  0.00  0.00    +0.000 C 
ENDROOT
BRANCH   1   4
ATOM      2  C1  UNL     1     -16.670  83.928 113.332  0.00  0.00    +0.000 C 
ATOM      3  C2  UNL     1     -17.299  82.926 112.410  0.00  0.00    +0.000 C 
ATOM      4  C3  UNL     1     -18.615  82.978 112.167  0.00  0.00    +0.000 C 
BRANCH   3   5
ATOM      5  O1  UNL     1     -16.510  81.954 111.796  0.00  0.00    +0.000 OA
ATOM      6  H12 UNL     1     -15.526  82.108 111.611  0.00  0.00    +0.000 HD
ENDBRANCH   3   5
ENDBRANCH   1   4
BRANCH   1   7
ATOM      7  S1  UNL     1     -20.047  80.633 112.180  0.00  0.00    +0.000 S 
BRANCH   7   8
ATOM      8  S2  UNL     1     -20.626  81.850 113.841  0.00  0.00    +0.000 S 
BRANCH   8   9
ATOM      9  C5  UNL     1     -20.234  80.582 115.089  0.00  0.00    +0.000 C 
BRANCH   9  10
ATOM     10  C6  UNL     1     -18.808  80.134 114.938  0.00  0.00    +0.000 C 
ATOM     11  C7  UNL     1     -18.366  78.990 115.467  0.00  0.00    +0.000 C 
ENDBRANCH   9  10
ENDBRANCH   8   9
ENDBRANCH   7   8
ENDBRANCH   1   7
TORSDOF 6
ENDMDL
MODEL 8
REMARK VINA RESULT:      -2.9      2.651      3.107
REMARK  Name = .\Allicin.pdb
REMARK  7 active torsions:
REMARK  status: ('A' for Active; 'I' for Inactive)
REMARK    1  A    between atoms: C1_1  and  C2_2
REMARK    2  A    between atoms: C2_2  and  O1_10
REMARK    3  A    between atoms: C3_3  and  C4_4
REMARK    4  A    between atoms: C4_4  and  S1_5
REMARK    5  A    between atoms: S1_5  and  S2_6
REMARK    6  A    between atoms: S2_6  and  C5_7
REMARK    7  A    between atoms: C5_7  and  C6_8
REMARK                            x       y       z     vdW  Elec       q    Type
REMARK                         _______ _______ _______ _____ _____    ______ ____
ROOT
ATOM      1  C4  UNL     1     -20.779  80.654 111.705  0.00  0.00    +0.000 C 
ENDROOT
BRANCH   1   4
ATOM      2  C1  UNL     1     -23.886  82.934 112.033  0.00  0.00    +0.000 C 
ATOM      3  C2  UNL     1     -22.995  81.792 111.643  0.00  0.00    +0.000 C 
ATOM      4  C3  UNL     1     -21.719  81.773 112.049  0.00  0.00    +0.000 C 
BRANCH   3   5
ATOM      5  O1  UNL     1     -23.502  80.745 110.873  0.00  0.00    +0.000 OA
ATOM      6  H12 UNL     1     -22.900  80.017 110.506  0.00  0.00    +0.000 HD
ENDBRANCH   3   5
ENDBRANCH   1   4
BRANCH   1   7
ATOM      7  S1  UNL     1     -19.065  81.074 112.172  0.00  0.00    +0.000 S 
BRANCH   7   8
ATOM      8  S2  UNL     1     -19.639  82.298 113.829  0.00  0.00    +0.000 S 
BRANCH   8   9
ATOM      9  C5  UNL     1     -18.648  81.367 115.042  0.00  0.00    +0.000 C 
BRANCH   9  10
ATOM     10  C6  UNL     1     -18.913  79.895 114.901  0.00  0.00    +0.000 C 
ATOM     11  C7  UNL     1     -18.284  78.988 115.655  0.00  0.00    +0.000 C 
ENDBRANCH   9  10
ENDBRANCH   8   9
ENDBRANCH   7   8
ENDBRANCH   1   7
TORSDOF 6
ENDMDL
MODEL 9
REMARK VINA RESULT:      -2.9      3.313      4.969
REMARK  Name = .\Allicin.pdb
REMARK  7 active torsions:
REMARK  status: ('A' for Active; 'I' for Inactive)
REMARK    1  A    between atoms: C1_1  and  C2_2
REMARK    2  A    between atoms: C2_2  and  O1_10
REMARK    3  A    between atoms: C3_3  and  C4_4
REMARK    4  A    between atoms: C4_4  and  S1_5
REMARK    5  A    between atoms: S1_5  and  S2_6
REMARK    6  A    between atoms: S2_6  and  C5_7
REMARK    7  A    between atoms: C5_7  and  C6_8
REMARK                            x       y       z     vdW  Elec       q    Type
REMARK                         _______ _______ _______ _____ _____    ______ ____
ROOT
ATOM      1  C4  UNL     1     -21.161  81.225 117.286  0.00  0.00    +0.000 C 
ENDROOT
BRANCH   1   4
ATOM      2  C1  UNL     1     -22.122  77.629 118.336  0.00  0.00    +0.000 C 
ATOM      3  C2  UNL     1     -21.803  79.094 118.405  0.00  0.00    +0.000 C 
ATOM      4  C3  UNL     1     -21.480  79.758 117.288  0.00  0.00    +0.000 C 
BRANCH   3   5
ATOM      5  O1  UNL     1     -21.858  79.761 119.628  0.00  0.00    +0.000 OA
ATOM      6  H12 UNL     1     -21.667  79.285 120.502  0.00  0.00    +0.000 HD
ENDBRANCH   3   5
ENDBRANCH   1   4
BRANCH   1   7
ATOM      7  S1  UNL     1     -21.097  81.878 115.583  0.00  0.00    +0.000 S 
BRANCH   7   8
ATOM      8  S2  UNL     1     -19.046  82.474 115.710  0.00  0.00    +0.000 S 
BRANCH   8   9
ATOM      9  C5  UNL     1     -18.502  81.399 114.343  0.00  0.00    +0.000 C 
BRANCH   9  10
ATOM     10  C6  UNL     1     -18.977  79.993 114.573  0.00  0.00    +0.000 C 
ATOM     11  C7  UNL     1     -18.337  79.156 115.396  0.00  0.00    +0.000 C 
ENDBRANCH   9  10
ENDBRANCH   8   9
ENDBRANCH   7   8
ENDBRANCH   1   7
TORSDOF 6
ENDMDL
