MODEL 1
REMARK VINA RESULT:      -3.7      0.000      0.000
REMARK  Name = .\Allicin.pdb
REMARK  7 active torsions:
REMARK  status: ('A' for Active; 'I' for Inactive)
REMARK    1  A    between atoms: C1_1  and  C2_2
REMARK    2  A    between atoms: C2_2  and  O1_10
REMARK    3  A    between atoms: C3_3  and  C4_4
REMARK    4  A    between atoms: C4_4  and  S1_5
REMARK    5  A    between atoms: S1_5  and  S2_6
REMARK    6  A    between atoms: S2_6  and  C5_7
REMARK    7  A    between atoms: C5_7  and  C6_8
REMARK                            x       y       z     vdW  Elec       q    Type
REMARK                         _______ _______ _______ _____ _____    ______ ____
ROOT
ATOM      1  C4  UNL     1       7.248  45.587  31.840  0.00  0.00    +0.000 C 
ENDROOT
BRANCH   1   4
ATOM      2  C1  UNL     1       9.215  42.672  33.449  0.00  0.00    +0.000 C 
ATOM      3  C2  UNL     1       8.317  43.862  33.286  0.00  0.00    +0.000 C 
ATOM      4  C3  UNL     1       8.142  44.404  32.074  0.00  0.00    +0.000 C 
BRANCH   3   5
ATOM      5  O1  UNL     1       7.655  44.392  34.393  0.00  0.00    +0.000 OA
ATOM      6  H12 UNL     1       6.727  44.792  34.316  0.00  0.00    +0.000 HD
ENDBRANCH   3   5
ENDBRANCH   1   4
BRANCH   1   7
ATOM      7  S1  UNL     1       8.204  47.018  31.230  0.00  0.00    +0.000 S 
BRANCH   7   8
ATOM      8  S2  UNL     1       8.896  47.595  33.170  0.00  0.00    +0.000 S 
BRANCH   8   9
ATOM      9  C5  UNL     1       8.812  49.382  32.823  0.00  0.00    +0.000 C 
BRANCH   9  10
ATOM     10  C6  UNL     1       7.782  49.653  31.764  0.00  0.00    +0.000 C 
ATOM     11  C7  UNL     1       7.710  50.829  31.133  0.00  0.00    +0.000 C 
ENDBRANCH   9  10
ENDBRANCH   8   9
ENDBRANCH   7   8
ENDBRANCH   1   7
TORSDOF 6
ENDMDL
MODEL 2
REMARK VINA RESULT:      -3.7      2.334      3.235
REMARK  Name = .\Allicin.pdb
REMARK  7 active torsions:
REMARK  status: ('A' for Active; 'I' for Inactive)
REMARK    1  A    between atoms: C1_1  and  C2_2
REMARK    2  A    between atoms: C2_2  and  O1_10
REMARK    3  A    between atoms: C3_3  and  C4_4
REMARK    4  A    between atoms: C4_4  and  S1_5
REMARK    5  A    between atoms: S1_5  and  S2_6
REMARK    6  A    between atoms: S2_6  and  C5_7
REMARK    7  A    between atoms: C5_7  and  C6_8
REMARK                            x       y       z     vdW  Elec       q    Type
REMARK                         _______ _______ _______ _____ _____    ______ ____
ROOT
ATOM      1  C4  UNL     1       7.959  47.491  30.853  0.00  0.00    +0.000 C 
ENDROOT
BRANCH   1   4
ATOM      2  C1  UNL     1       7.921  44.125  32.757  0.00  0.00    +0.000 C 
ATOM      3  C2  UNL     1       7.485  45.288  31.916  0.00  0.00    +0.000 C 
ATOM      4  C3  UNL     1       8.329  46.304  31.694  0.00  0.00    +0.000 C 
BRANCH   3   5
ATOM      5  O1  UNL     1       6.208  45.301  31.355  0.00  0.00    +0.000 OA
ATOM      6  H12 UNL     1       5.880  46.084  30.802  0.00  0.00    +0.000 HD
ENDBRANCH   3   5
ENDBRANCH   1   4
BRANCH   1   7
ATOM      7  S1  UNL     1       7.643  48.957  31.894  0.00  0.00    +0.000 S 
BRANCH   7   8
ATOM      8  S2  UNL     1       9.414  48.712  33.068  0.00  0.00    +0.000 S 
BRANCH   8   9
ATOM      9  C5  UNL     1       8.512  48.386  34.617  0.00  0.00    +0.000 C 
BRANCH   9  10
ATOM     10  C6  UNL     1       9.056  47.154  35.281  0.00  0.00    +0.000 C 
ATOM     11  C7  UNL     1       8.279  46.334  35.995  0.00  0.00    +0.000 C 
ENDBRANCH   9  10
ENDBRANCH   8   9
ENDBRANCH   7   8
ENDBRANCH   1   7
TORSDOF 6
ENDMDL
MODEL 3
REMARK VINA RESULT:      -3.7      2.564      5.583
REMARK  Name = .\Allicin.pdb
REMARK  7 active torsions:
REMARK  status: ('A' for Active; 'I' for Inactive)
REMARK    1  A    between atoms: C1_1  and  C2_2
REMARK    2  A    between atoms: C2_2  and  O1_10
REMARK    3  A    between atoms: C3_3  and  C4_4
REMARK    4  A    between atoms: C4_4  and  S1_5
REMARK    5  A    between atoms: S1_5  and  S2_6
REMARK    6  A    between atoms: S2_6  and  C5_7
REMARK    7  A    between atoms: C5_7  and  C6_8
REMARK                            x       y       z     vdW  Elec       q    Type
REMARK                         _______ _______ _______ _____ _____    ______ ____
ROOT
ATOM      1  C4  UNL     1       7.851  47.374  30.555  0.00  0.00    +0.000 C 
ENDROOT
BRANCH   1   4
ATOM      2  C1  UNL     1       8.990  50.711  32.143  0.00  0.00    +0.000 C 
ATOM      3  C2  UNL     1       8.297  49.725  31.251  0.00  0.00    +0.000 C 
ATOM      4  C3  UNL     1       8.521  48.414  31.407  0.00  0.00    +0.000 C 
BRANCH   3   5
ATOM      5  O1  UNL     1       7.410  50.174  30.273  0.00  0.00    +0.000 OA
ATOM      6  H12 UNL     1       6.409  50.177  30.425  0.00  0.00    +0.000 HD
ENDBRANCH   3   5
ENDBRANCH   1   4
BRANCH   1   7
ATOM      7  S1  UNL     1       7.528  45.854  31.513  0.00  0.00    +0.000 S 
BRANCH   7   8
ATOM      8  S2  UNL     1       8.664  46.484  33.212  0.00  0.00    +0.000 S 
BRANCH   8   9
ATOM      9  C5  UNL     1       8.449  44.915  34.114  0.00  0.00    +0.000 C 
BRANCH   9  10
ATOM     10  C6  UNL     1       8.376  43.770  33.146  0.00  0.00    +0.000 C 
ATOM     11  C7  UNL     1       9.177  42.704  33.249  0.00  0.00    +0.000 C 
ENDBRANCH   9  10
ENDBRANCH   8   9
ENDBRANCH   7   8
ENDBRANCH   1   7
TORSDOF 6
ENDMDL
MODEL 4
REMARK VINA RESULT:      -3.7      2.548      2.890
REMARK  Name = .\Allicin.pdb
REMARK  7 active torsions:
REMARK  status: ('A' for Active; 'I' for Inactive)
REMARK    1  A    between atoms: C1_1  and  C2_2
REMARK    2  A    between atoms: C2_2  and  O1_10
REMARK    3  A    between atoms: C3_3  and  C4_4
REMARK    4  A    between atoms: C4_4  and  S1_5
REMARK    5  A    between atoms: S1_5  and  S2_6
REMARK    6  A    between atoms: S2_6  and  C5_7
REMARK    7  A    between atoms: C5_7  and  C6_8
REMARK                            x       y       z     vdW  Elec       q    Type
REMARK                         _______ _______ _______ _____ _____    ______ ____
ROOT
ATOM      1  C4  UNL     1       7.954  47.718  31.026  0.00  0.00    +0.000 C 
ENDROOT
BRANCH   1   4
ATOM      2  C1  UNL     1       8.143  44.144  32.490  0.00  0.00    +0.000 C 
ATOM      3  C2  UNL     1       7.623  45.378  31.813  0.00  0.00    +0.000 C 
ATOM      4  C3  UNL     1       8.408  46.457  31.702  0.00  0.00    +0.000 C 
BRANCH   3   5
ATOM      5  O1  UNL     1       6.332  45.392  31.288  0.00  0.00    +0.000 OA
ATOM      6  H12 UNL     1       5.634  44.716  31.576  0.00  0.00    +0.000 HD
ENDBRANCH   3   5
ENDBRANCH   1   4
BRANCH   1   7
ATOM      7  S1  UNL     1       7.523  48.999  32.253  0.00  0.00    +0.000 S 
BRANCH   7   8
ATOM      8  S2  UNL     1       7.925  50.635  30.934  0.00  0.00    +0.000 S 
BRANCH   8   9
ATOM      9  C5  UNL     1       9.688  50.746  31.381  0.00  0.00    +0.000 C 
BRANCH   9  10
ATOM     10  C6  UNL     1      10.539  50.663  30.146  0.00  0.00    +0.000 C 
ATOM     11  C7  UNL     1      11.127  49.524  29.768  0.00  0.00    +0.000 C 
ENDBRANCH   9  10
ENDBRANCH   8   9
ENDBRANCH   7   8
ENDBRANCH   1   7
TORSDOF 6
ENDMDL
MODEL 5
REMARK VINA RESULT:      -3.6      2.543      5.330
REMARK  Name = .\Allicin.pdb
REMARK  7 active torsions:
REMARK  status: ('A' for Active; 'I' for Inactive)
REMARK    1  A    between atoms: C1_1  and  C2_2
REMARK    2  A    between atoms: C2_2  and  O1_10
REMARK    3  A    between atoms: C3_3  and  C4_4
REMARK    4  A    between atoms: C4_4  and  S1_5
REMARK    5  A    between atoms: S1_5  and  S2_6
REMARK    6  A    between atoms: S2_6  and  C5_7
REMARK    7  A    between atoms: C5_7  and  C6_8
REMARK                            x       y       z     vdW  Elec       q    Type
REMARK                         _______ _______ _______ _____ _____    ______ ____
ROOT
ATOM      1  C4  UNL     1       8.457  47.820  32.850  0.00  0.00    +0.000 C 
ENDROOT
BRANCH   1   4
ATOM      2  C1  UNL     1      10.651  49.437  30.106  0.00  0.00    +0.000 C 
ATOM      3  C2  UNL     1       9.633  48.569  30.785  0.00  0.00    +0.000 C 
ATOM      4  C3  UNL     1       9.466  48.651  32.111  0.00  0.00    +0.000 C 
BRANCH   3   5
ATOM      5  O1  UNL     1       8.853  47.693  30.032  0.00  0.00    +0.000 OA
ATOM      6  H12 UNL     1       7.847  47.798  29.970  0.00  0.00    +0.000 HD
ENDBRANCH   3   5
ENDBRANCH   1   4
BRANCH   1   7
ATOM      7  S1  UNL     1       8.773  47.854  34.648  0.00  0.00    +0.000 S 
BRANCH   7   8
ATOM      8  S2  UNL     1       8.629  45.733  34.882  0.00  0.00    +0.000 S 
BRANCH   8   9
ATOM      9  C5  UNL     1       8.369  45.413  33.107  0.00  0.00    +0.000 C 
BRANCH   9  10
ATOM     10  C6  UNL     1       8.127  43.949  32.878  0.00  0.00    +0.000 C 
ATOM     11  C7  UNL     1       9.003  43.018  33.268  0.00  0.00    +0.000 C 
ENDBRANCH   9  10
ENDBRANCH   8   9
ENDBRANCH   7   8
ENDBRANCH   1   7
TORSDOF 6
ENDMDL
MODEL 6
REMARK VINA RESULT:      -3.5      2.441      3.987
REMARK  Name = .\Allicin.pdb
REMARK  7 active torsions:
REMARK  status: ('A' for Active; 'I' for Inactive)
REMARK    1  A    between atoms: C1_1  and  C2_2
REMARK    2  A    between atoms: C2_2  and  O1_10
REMARK    3  A    between atoms: C3_3  and  C4_4
REMARK    4  A    between atoms: C4_4  and  S1_5
REMARK    5  A    between atoms: S1_5  and  S2_6
REMARK    6  A    between atoms: S2_6  and  C5_7
REMARK    7  A    between atoms: C5_7  and  C6_8
REMARK                            x       y       z     vdW  Elec       q    Type
REMARK                         _______ _______ _______ _____ _____    ______ ____
ROOT
ATOM      1  C4  UNL     1       9.350  49.410  34.330  0.00  0.00    +0.000 C 
ENDROOT
BRANCH   1   4
ATOM      2  C1  UNL     1       8.507  45.786  35.387  0.00  0.00    +0.000 C 
ATOM      3  C2  UNL     1       9.282  47.012  35.003  0.00  0.00    +0.000 C 
ATOM      4  C3  UNL     1       8.634  48.146  34.709  0.00  0.00    +0.000 C 
BRANCH   3   5
ATOM      5  O1  UNL     1      10.676  46.971  34.970  0.00  0.00    +0.000 OA
ATOM      6  H12 UNL     1      11.238  47.735  35.328  0.00  0.00    +0.000 HD
ENDBRANCH   3   5
ENDBRANCH   1   4
BRANCH   1   7
ATOM      7  S1  UNL     1       9.647  49.478  32.530  0.00  0.00    +0.000 S 
BRANCH   7   8
ATOM      8  S2  UNL     1       7.691  48.784  32.012  0.00  0.00    +0.000 S 
BRANCH   8   9
ATOM      9  C5  UNL     1       8.296  47.329  31.097  0.00  0.00    +0.000 C 
BRANCH   9  10
ATOM     10  C6  UNL     1       7.427  46.140  31.387  0.00  0.00    +0.000 C 
ATOM     11  C7  UNL     1       7.929  44.998  31.867  0.00  0.00    +0.000 C 
ENDBRANCH   9  10
ENDBRANCH   8   9
ENDBRANCH   7   8
ENDBRANCH   1   7
TORSDOF 6
ENDMDL
MODEL 7
REMARK VINA RESULT:      -3.5      1.949      2.373
REMARK  Name = .\Allicin.pdb
REMARK  7 active torsions:
REMARK  status: ('A' for Active; 'I' for Inactive)
REMARK    1  A    between atoms: C1_1  and  C2_2
REMARK    2  A    between atoms: C2_2  and  O1_10
REMARK    3  A    between atoms: C3_3  and  C4_4
REMARK    4  A    between atoms: C4_4  and  S1_5
REMARK    5  A    between atoms: S1_5  and  S2_6
REMARK    6  A    between atoms: S2_6  and  C5_7
REMARK    7  A    between atoms: C5_7  and  C6_8
REMARK                            x       y       z     vdW  Elec       q    Type
REMARK                         _______ _______ _______ _____ _____    ______ ____
ROOT
ATOM      1  C4  UNL     1       7.878  47.482  30.887  0.00  0.00    +0.000 C 
ENDROOT
BRANCH   1   4
ATOM      2  C1  UNL     1       7.885  44.070  32.707  0.00  0.00    +0.000 C 
ATOM      3  C2  UNL     1       7.434  45.246  31.893  0.00  0.00    +0.000 C 
ATOM      4  C3  UNL     1       8.263  46.281  31.701  0.00  0.00    +0.000 C 
BRANCH   3   5
ATOM      5  O1  UNL     1       6.160  45.253  31.326  0.00  0.00    +0.000 OA
ATOM      6  H12 UNL     1       5.365  44.842  31.802  0.00  0.00    +0.000 HD
ENDBRANCH   3   5
ENDBRANCH   1   4
BRANCH   1   7
ATOM      7  S1  UNL     1       7.684  48.955  31.948  0.00  0.00    +0.000 S 
BRANCH   7   8
ATOM      8  S2  UNL     1       8.888  48.175  33.536  0.00  0.00    +0.000 S 
BRANCH   8   9
ATOM      9  C5  UNL     1      10.203  49.421  33.339  0.00  0.00    +0.000 C 
BRANCH   9  10
ATOM     10  C6  UNL     1       9.600  50.769  33.069  0.00  0.00    +0.000 C 
ATOM     11  C7  UNL     1       9.929  51.848  33.787  0.00  0.00    +0.000 C 
ENDBRANCH   9  10
ENDBRANCH   8   9
ENDBRANCH   7   8
ENDBRANCH   1   7
TORSDOF 6
ENDMDL
MODEL 8
REMARK VINA RESULT:      -3.4      2.824      5.907
REMARK  Name = .\Allicin.pdb
REMARK  7 active torsions:
REMARK  status: ('A' for Active; 'I' for Inactive)
REMARK    1  A    between atoms: C1_1  and  C2_2
REMARK    2  A    between atoms: C2_2  and  O1_10
REMARK    3  A    between atoms: C3_3  and  C4_4
REMARK    4  A    between atoms: C4_4  and  S1_5
REMARK    5  A    between atoms: S1_5  and  S2_6
REMARK    6  A    between atoms: S2_6  and  C5_7
REMARK    7  A    between atoms: C5_7  and  C6_8
REMARK                            x       y       z     vdW  Elec       q    Type
REMARK                         _______ _______ _______ _____ _____    ______ ____
ROOT
ATOM      1  C4  UNL     1       9.575  48.798  32.463  0.00  0.00    +0.000 C 
ENDROOT
BRANCH   1   4
ATOM      2  C1  UNL     1      10.963  51.196  29.764  0.00  0.00    +0.000 C 
ATOM      3  C2  UNL     1      10.459  49.956  30.441  0.00  0.00    +0.000 C 
ATOM      4  C3  UNL     1      10.098  50.000  31.730  0.00  0.00    +0.000 C 
BRANCH   3   5
ATOM      5  O1  UNL     1      10.354  48.765  29.723  0.00  0.00    +0.000 OA
ATOM      6  H12 UNL     1      11.111  48.428  29.140  0.00  0.00    +0.000 HD
ENDBRANCH   3   5
ENDBRANCH   1   4
BRANCH   1   7
ATOM      7  S1  UNL     1       7.759  48.687  32.322  0.00  0.00    +0.000 S 
BRANCH   7   8
ATOM      8  S2  UNL     1       7.787  46.824  31.270  0.00  0.00    +0.000 S 
BRANCH   8   9
ATOM      9  C5  UNL     1       8.346  45.858  32.710  0.00  0.00    +0.000 C 
BRANCH   9  10
ATOM     10  C6  UNL     1       8.166  44.391  32.447  0.00  0.00    +0.000 C 
ATOM     11  C7  UNL     1       8.756  43.459  33.202  0.00  0.00    +0.000 C 
ENDBRANCH   9  10
ENDBRANCH   8   9
ENDBRANCH   7   8
ENDBRANCH   1   7
TORSDOF 6
ENDMDL
MODEL 9
REMARK VINA RESULT:      -3.4      1.546      1.889
REMARK  Name = .\Allicin.pdb
REMARK  7 active torsions:
REMARK  status: ('A' for Active; 'I' for Inactive)
REMARK    1  A    between atoms: C1_1  and  C2_2
REMARK    2  A    between atoms: C2_2  and  O1_10
REMARK    3  A    between atoms: C3_3  and  C4_4
REMARK    4  A    between atoms: C4_4  and  S1_5
REMARK    5  A    between atoms: S1_5  and  S2_6
REMARK    6  A    between atoms: S2_6  and  C5_7
REMARK    7  A    between atoms: C5_7  and  C6_8
REMARK                            x       y       z     vdW  Elec       q    Type
REMARK                         _______ _______ _______ _____ _____    ______ ____
ROOT
ATOM      1  C4  UNL     1       8.171  46.801  32.536  0.00  0.00    +0.000 C 
ENDROOT
BRANCH   1   4
ATOM      2  C1  UNL     1       8.652  42.991  32.997  0.00  0.00    +0.000 C 
ATOM      3  C2  UNL     1       8.645  44.466  33.267  0.00  0.00    +0.000 C 
ATOM      4  C3  UNL     1       8.215  45.315  32.324  0.00  0.00    +0.000 C 
BRANCH   3   5
ATOM      5  O1  UNL     1       9.070  44.949  34.505  0.00  0.00    +0.000 OA
ATOM      6  H12 UNL     1       9.901  44.587  34.958  0.00  0.00    +0.000 HD
ENDBRANCH   3   5
ENDBRANCH   1   4
BRANCH   1   7
ATOM      7  S1  UNL     1       8.717  47.690  31.038  0.00  0.00    +0.000 S 
BRANCH   7   8
ATOM      8  S2  UNL     1       7.670  49.491  31.523  0.00  0.00    +0.000 S 
BRANCH   8   9
ATOM      9  C5  UNL     1       8.938  50.587  30.808  0.00  0.00    +0.000 C 
BRANCH   9  10
ATOM     10  C6  UNL     1       9.976  50.918  31.842  0.00  0.00    +0.000 C 
ATOM     11  C7  UNL     1       9.705  50.888  33.150  0.00  0.00    +0.000 C 
ENDBRANCH   9  10
ENDBRANCH   8   9
ENDBRANCH   7   8
ENDBRANCH   1   7
TORSDOF 6
ENDMDL
