MODEL 1
REMARK VINA RESULT:      -3.4      0.000      0.000
REMARK  Name = .\Allicin.pdb
REMARK  7 active torsions:
REMARK  status: ('A' for Active; 'I' for Inactive)
REMARK    1  A    between atoms: C1_1  and  C2_2
REMARK    2  A    between atoms: C2_2  and  O1_10
REMARK    3  A    between atoms: C3_3  and  C4_4
REMARK    4  A    between atoms: C4_4  and  S1_5
REMARK    5  A    between atoms: S1_5  and  S2_6
REMARK    6  A    between atoms: S2_6  and  C5_7
REMARK    7  A    between atoms: C5_7  and  C6_8
REMARK                            x       y       z     vdW  Elec       q    Type
REMARK                         _______ _______ _______ _____ _____    ______ ____
ROOT
ATOM      1  C4  UNL     1       7.541  48.853  19.172  0.00  0.00    +0.000 C 
ENDROOT
BRANCH   1   4
ATOM      2  C1  UNL     1      10.341  50.472  17.051  0.00  0.00    +0.000 C 
ATOM      3  C2  UNL     1       8.985  50.129  17.592  0.00  0.00    +0.000 C 
ATOM      4  C3  UNL     1       8.868  49.231  18.578  0.00  0.00    +0.000 C 
BRANCH   3   5
ATOM      5  O1  UNL     1       7.851  50.757  17.076  0.00  0.00    +0.000 OA
ATOM      6  H12 UNL     1       7.819  51.759  16.931  0.00  0.00    +0.000 HD
ENDBRANCH   3   5
ENDBRANCH   1   4
BRANCH   1   7
ATOM      7  S1  UNL     1       7.722  48.372  20.923  0.00  0.00    +0.000 S 
BRANCH   7   8
ATOM      8  S2  UNL     1       9.648  49.276  21.146  0.00  0.00    +0.000 S 
BRANCH   8   9
ATOM      9  C5  UNL     1       9.034  50.671  22.146  0.00  0.00    +0.000 C 
BRANCH   9  10
ATOM     10  C6  UNL     1       8.740  51.848  21.262  0.00  0.00    +0.000 C 
ATOM     11  C7  UNL     1       7.494  52.162  20.894  0.00  0.00    +0.000 C 
ENDBRANCH   9  10
ENDBRANCH   8   9
ENDBRANCH   7   8
ENDBRANCH   1   7
TORSDOF 6
ENDMDL
MODEL 2
REMARK VINA RESULT:      -3.3      1.058      1.940
REMARK  Name = .\Allicin.pdb
REMARK  7 active torsions:
REMARK  status: ('A' for Active; 'I' for Inactive)
REMARK    1  A    between atoms: C1_1  and  C2_2
REMARK    2  A    between atoms: C2_2  and  O1_10
REMARK    3  A    between atoms: C3_3  and  C4_4
REMARK    4  A    between atoms: C4_4  and  S1_5
REMARK    5  A    between atoms: S1_5  and  S2_6
REMARK    6  A    between atoms: S2_6  and  C5_7
REMARK    7  A    between atoms: C5_7  and  C6_8
REMARK                            x       y       z     vdW  Elec       q    Type
REMARK                         _______ _______ _______ _____ _____    ______ ____
ROOT
ATOM      1  C4  UNL     1       9.952  49.630  18.810  0.00  0.00    +0.000 C 
ENDROOT
BRANCH   1   4
ATOM      2  C1  UNL     1       6.438  48.736  17.467  0.00  0.00    +0.000 C 
ATOM      3  C2  UNL     1       7.717  49.477  17.720  0.00  0.00    +0.000 C 
ATOM      4  C3  UNL     1       8.646  48.946  18.526  0.00  0.00    +0.000 C 
BRANCH   3   5
ATOM      5  O1  UNL     1       7.942  50.707  17.104  0.00  0.00    +0.000 OA
ATOM      6  H12 UNL     1       7.411  50.999  16.291  0.00  0.00    +0.000 HD
ENDBRANCH   3   5
ENDBRANCH   1   4
BRANCH   1   7
ATOM      7  S1  UNL     1      10.656  49.061  20.396  0.00  0.00    +0.000 S 
BRANCH   7   8
ATOM      8  S2  UNL     1       8.816  49.250  21.471  0.00  0.00    +0.000 S 
BRANCH   8   9
ATOM      9  C5  UNL     1       9.277  50.825  22.263  0.00  0.00    +0.000 C 
BRANCH   9  10
ATOM     10  C6  UNL     1       8.663  51.975  21.518  0.00  0.00    +0.000 C 
ATOM     11  C7  UNL     1       7.577  51.823  20.754  0.00  0.00    +0.000 C 
ENDBRANCH   9  10
ENDBRANCH   8   9
ENDBRANCH   7   8
ENDBRANCH   1   7
TORSDOF 6
ENDMDL
MODEL 3
REMARK VINA RESULT:      -3.2      2.519      4.835
REMARK  Name = .\Allicin.pdb
REMARK  7 active torsions:
REMARK  status: ('A' for Active; 'I' for Inactive)
REMARK    1  A    between atoms: C1_1  and  C2_2
REMARK    2  A    between atoms: C2_2  and  O1_10
REMARK    3  A    between atoms: C3_3  and  C4_4
REMARK    4  A    between atoms: C4_4  and  S1_5
REMARK    5  A    between atoms: S1_5  and  S2_6
REMARK    6  A    between atoms: S2_6  and  C5_7
REMARK    7  A    between atoms: C5_7  and  C6_8
REMARK                            x       y       z     vdW  Elec       q    Type
REMARK                         _______ _______ _______ _____ _____    ______ ____
ROOT
ATOM      1  C4  UNL     1       7.651  51.353  20.639  0.00  0.00    +0.000 C 
ENDROOT
BRANCH   1   4
ATOM      2  C1  UNL     1      10.387  52.144  23.255  0.00  0.00    +0.000 C 
ATOM      3  C2  UNL     1       9.317  51.423  22.490  0.00  0.00    +0.000 C 
ATOM      4  C3  UNL     1       8.719  52.023  21.453  0.00  0.00    +0.000 C 
BRANCH   3   5
ATOM      5  O1  UNL     1       8.960  50.124  22.850  0.00  0.00    +0.000 OA
ATOM      6  H12 UNL     1       8.911  49.378  22.166  0.00  0.00    +0.000 HD
ENDBRANCH   3   5
ENDBRANCH   1   4
BRANCH   1   7
ATOM      7  S1  UNL     1       8.376  50.431  19.241  0.00  0.00    +0.000 S 
BRANCH   7   8
ATOM      8  S2  UNL     1       7.481  48.567  19.788  0.00  0.00    +0.000 S 
BRANCH   8   9
ATOM      9  C5  UNL     1       6.819  48.235  18.123  0.00  0.00    +0.000 C 
BRANCH   9  10
ATOM     10  C6  UNL     1       7.612  48.987  17.094  0.00  0.00    +0.000 C 
ATOM     11  C7  UNL     1       7.830  48.495  15.871  0.00  0.00    +0.000 C 
ENDBRANCH   9  10
ENDBRANCH   8   9
ENDBRANCH   7   8
ENDBRANCH   1   7
TORSDOF 6
ENDMDL
MODEL 4
REMARK VINA RESULT:      -3.1      2.553      4.309
REMARK  Name = .\Allicin.pdb
REMARK  7 active torsions:
REMARK  status: ('A' for Active; 'I' for Inactive)
REMARK    1  A    between atoms: C1_1  and  C2_2
REMARK    2  A    between atoms: C2_2  and  O1_10
REMARK    3  A    between atoms: C3_3  and  C4_4
REMARK    4  A    between atoms: C4_4  and  S1_5
REMARK    5  A    between atoms: S1_5  and  S2_6
REMARK    6  A    between atoms: S2_6  and  C5_7
REMARK    7  A    between atoms: C5_7  and  C6_8
REMARK                            x       y       z     vdW  Elec       q    Type
REMARK                         _______ _______ _______ _____ _____    ______ ____
ROOT
ATOM      1  C4  UNL     1       9.827  49.362  19.670  0.00  0.00    +0.000 C 
ENDROOT
BRANCH   1   4
ATOM      2  C1  UNL     1       7.402  52.095  20.938  0.00  0.00    +0.000 C 
ATOM      3  C2  UNL     1       8.019  50.754  20.671  0.00  0.00    +0.000 C 
ATOM      4  C3  UNL     1       9.152  50.671  19.962  0.00  0.00    +0.000 C 
BRANCH   3   5
ATOM      5  O1  UNL     1       7.420  49.600  21.175  0.00  0.00    +0.000 OA
ATOM      6  H12 UNL     1       6.413  49.492  21.198  0.00  0.00    +0.000 HD
ENDBRANCH   3   5
ENDBRANCH   1   4
BRANCH   1   7
ATOM      7  S1  UNL     1      10.642  49.397  18.037  0.00  0.00    +0.000 S 
BRANCH   7   8
ATOM      8  S2  UNL     1       9.295  47.993  17.148  0.00  0.00    +0.000 S 
BRANCH   8   9
ATOM      9  C5  UNL     1       8.030  49.244  16.752  0.00  0.00    +0.000 C 
BRANCH   9  10
ATOM     10  C6  UNL     1       6.766  48.956  17.510  0.00  0.00    +0.000 C 
ATOM     11  C7  UNL     1       6.624  47.857  18.257  0.00  0.00    +0.000 C 
ENDBRANCH   9  10
ENDBRANCH   8   9
ENDBRANCH   7   8
ENDBRANCH   1   7
TORSDOF 6
ENDMDL
MODEL 5
REMARK VINA RESULT:      -3.1      2.113      4.194
REMARK  Name = .\Allicin.pdb
REMARK  7 active torsions:
REMARK  status: ('A' for Active; 'I' for Inactive)
REMARK    1  A    between atoms: C1_1  and  C2_2
REMARK    2  A    between atoms: C2_2  and  O1_10
REMARK    3  A    between atoms: C3_3  and  C4_4
REMARK    4  A    between atoms: C4_4  and  S1_5
REMARK    5  A    between atoms: S1_5  and  S2_6
REMARK    6  A    between atoms: S2_6  and  C5_7
REMARK    7  A    between atoms: C5_7  and  C6_8
REMARK                            x       y       z     vdW  Elec       q    Type
REMARK                         _______ _______ _______ _____ _____    ______ ____
ROOT
ATOM      1  C4  UNL     1       7.773  49.620  20.518  0.00  0.00    +0.000 C 
ENDROOT
BRANCH   1   4
ATOM      2  C1  UNL     1       9.860  52.037  22.699  0.00  0.00    +0.000 C 
ATOM      3  C2  UNL     1       8.710  51.428  21.953  0.00  0.00    +0.000 C 
ATOM      4  C3  UNL     1       8.885  50.287  21.275  0.00  0.00    +0.000 C 
BRANCH   3   5
ATOM      5  O1  UNL     1       7.459  52.044  21.980  0.00  0.00    +0.000 OA
ATOM      6  H12 UNL     1       7.080  52.438  22.834  0.00  0.00    +0.000 HD
ENDBRANCH   3   5
ENDBRANCH   1   4
BRANCH   1   7
ATOM      7  S1  UNL     1       8.178  47.876  20.164  0.00  0.00    +0.000 S 
BRANCH   7   8
ATOM      8  S2  UNL     1       7.045  47.807  18.350  0.00  0.00    +0.000 S 
BRANCH   8   9
ATOM      9  C5  UNL     1       7.360  49.550  17.922  0.00  0.00    +0.000 C 
BRANCH   9  10
ATOM     10  C6  UNL     1       8.527  49.647  16.981  0.00  0.00    +0.000 C 
ATOM     11  C7  UNL     1       9.634  50.326  17.295  0.00  0.00    +0.000 C 
ENDBRANCH   9  10
ENDBRANCH   8   9
ENDBRANCH   7   8
ENDBRANCH   1   7
TORSDOF 6
ENDMDL
MODEL 6
REMARK VINA RESULT:      -3.0      1.581      2.305
REMARK  Name = .\Allicin.pdb
REMARK  7 active torsions:
REMARK  status: ('A' for Active; 'I' for Inactive)
REMARK    1  A    between atoms: C1_1  and  C2_2
REMARK    2  A    between atoms: C2_2  and  O1_10
REMARK    3  A    between atoms: C3_3  and  C4_4
REMARK    4  A    between atoms: C4_4  and  S1_5
REMARK    5  A    between atoms: S1_5  and  S2_6
REMARK    6  A    between atoms: S2_6  and  C5_7
REMARK    7  A    between atoms: C5_7  and  C6_8
REMARK                            x       y       z     vdW  Elec       q    Type
REMARK                         _______ _______ _______ _____ _____    ______ ____
ROOT
ATOM      1  C4  UNL     1       9.698  49.837  18.959  0.00  0.00    +0.000 C 
ENDROOT
BRANCH   1   4
ATOM      2  C1  UNL     1       7.873  48.532  15.809  0.00  0.00    +0.000 C 
ATOM      3  C2  UNL     1       8.334  49.436  16.913  0.00  0.00    +0.000 C 
ATOM      4  C3  UNL     1       9.190  48.980  17.836  0.00  0.00    +0.000 C 
BRANCH   3   5
ATOM      5  O1  UNL     1       7.882  50.755  16.967  0.00  0.00    +0.000 OA
ATOM      6  H12 UNL     1       8.256  51.417  17.636  0.00  0.00    +0.000 HD
ENDBRANCH   3   5
ENDBRANCH   1   4
BRANCH   1   7
ATOM      7  S1  UNL     1       8.867  49.417  20.529  0.00  0.00    +0.000 S 
BRANCH   7   8
ATOM      8  S2  UNL     1       7.860  51.297  20.692  0.00  0.00    +0.000 S 
BRANCH   8   9
ATOM      9  C5  UNL     1       8.925  51.912  22.037  0.00  0.00    +0.000 C 
BRANCH   9  10
ATOM     10  C6  UNL     1       9.803  50.805  22.545  0.00  0.00    +0.000 C 
ATOM     11  C7  UNL     1      10.776  51.025  23.435  0.00  0.00    +0.000 C 
ENDBRANCH   9  10
ENDBRANCH   8   9
ENDBRANCH   7   8
ENDBRANCH   1   7
TORSDOF 6
ENDMDL
MODEL 7
REMARK VINA RESULT:      -3.0      1.296      1.498
REMARK  Name = .\Allicin.pdb
REMARK  7 active torsions:
REMARK  status: ('A' for Active; 'I' for Inactive)
REMARK    1  A    between atoms: C1_1  and  C2_2
REMARK    2  A    between atoms: C2_2  and  O1_10
REMARK    3  A    between atoms: C3_3  and  C4_4
REMARK    4  A    between atoms: C4_4  and  S1_5
REMARK    5  A    between atoms: S1_5  and  S2_6
REMARK    6  A    between atoms: S2_6  and  C5_7
REMARK    7  A    between atoms: C5_7  and  C6_8
REMARK                            x       y       z     vdW  Elec       q    Type
REMARK                         _______ _______ _______ _____ _____    ______ ____
ROOT
ATOM      1  C4  UNL     1       6.773  47.580  19.393  0.00  0.00    +0.000 C 
ENDROOT
BRANCH   1   4
ATOM      2  C1  UNL     1       8.505  50.067  16.991  0.00  0.00    +0.000 C 
ATOM      3  C2  UNL     1       7.443  49.273  17.692  0.00  0.00    +0.000 C 
ATOM      4  C3  UNL     1       7.786  48.397  18.645  0.00  0.00    +0.000 C 
BRANCH   3   5
ATOM      5  O1  UNL     1       6.101  49.460  17.362  0.00  0.00    +0.000 OA
ATOM      6  H12 UNL     1       5.825  49.870  16.477  0.00  0.00    +0.000 HD
ENDBRANCH   3   5
ENDBRANCH   1   4
BRANCH   1   7
ATOM      7  S1  UNL     1       7.187  47.491  21.169  0.00  0.00    +0.000 S 
BRANCH   7   8
ATOM      8  S2  UNL     1       9.238  48.032  20.889  0.00  0.00    +0.000 S 
BRANCH   8   9
ATOM      9  C5  UNL     1       9.118  49.554  21.885  0.00  0.00    +0.000 C 
BRANCH   9  10
ATOM     10  C6  UNL     1       9.217  50.760  20.996  0.00  0.00    +0.000 C 
ATOM     11  C7  UNL     1       8.449  51.839  21.181  0.00  0.00    +0.000 C 
ENDBRANCH   9  10
ENDBRANCH   8   9
ENDBRANCH   7   8
ENDBRANCH   1   7
TORSDOF 6
ENDMDL
MODEL 8
REMARK VINA RESULT:      -3.0      1.706      3.333
REMARK  Name = .\Allicin.pdb
REMARK  7 active torsions:
REMARK  status: ('A' for Active; 'I' for Inactive)
REMARK    1  A    between atoms: C1_1  and  C2_2
REMARK    2  A    between atoms: C2_2  and  O1_10
REMARK    3  A    between atoms: C3_3  and  C4_4
REMARK    4  A    between atoms: C4_4  and  S1_5
REMARK    5  A    between atoms: S1_5  and  S2_6
REMARK    6  A    between atoms: S2_6  and  C5_7
REMARK    7  A    between atoms: C5_7  and  C6_8
REMARK                            x       y       z     vdW  Elec       q    Type
REMARK                         _______ _______ _______ _____ _____    ______ ____
ROOT
ATOM      1  C4  UNL     1       7.958  50.470  19.858  0.00  0.00    +0.000 C 
ENDROOT
BRANCH   1   4
ATOM      2  C1  UNL     1       7.475  48.463  16.588  0.00  0.00    +0.000 C 
ATOM      3  C2  UNL     1       7.700  49.603  17.537  0.00  0.00    +0.000 C 
ATOM      4  C3  UNL     1       7.727  49.376  18.856  0.00  0.00    +0.000 C 
BRANCH   3   5
ATOM      5  O1  UNL     1       7.895  50.892  17.042  0.00  0.00    +0.000 OA
ATOM      6  H12 UNL     1       8.653  51.107  16.405  0.00  0.00    +0.000 HD
ENDBRANCH   3   5
ENDBRANCH   1   4
BRANCH   1   7
ATOM      7  S1  UNL     1       9.574  50.269  20.683  0.00  0.00    +0.000 S 
BRANCH   7   8
ATOM      8  S2  UNL     1       9.831  48.241  20.054  0.00  0.00    +0.000 S 
BRANCH   8   9
ATOM      9  C5  UNL     1      11.443  48.543  19.259  0.00  0.00    +0.000 C 
BRANCH   9  10
ATOM     10  C6  UNL     1      11.277  48.613  17.769  0.00  0.00    +0.000 C 
ATOM     11  C7  UNL     1      11.341  49.770  17.104  0.00  0.00    +0.000 C 
ENDBRANCH   9  10
ENDBRANCH   8   9
ENDBRANCH   7   8
ENDBRANCH   1   7
TORSDOF 6
ENDMDL
MODEL 9
REMARK VINA RESULT:      -2.9      2.401      3.207
REMARK  Name = .\Allicin.pdb
REMARK  7 active torsions:
REMARK  status: ('A' for Active; 'I' for Inactive)
REMARK    1  A    between atoms: C1_1  and  C2_2
REMARK    2  A    between atoms: C2_2  and  O1_10
REMARK    3  A    between atoms: C3_3  and  C4_4
REMARK    4  A    between atoms: C4_4  and  S1_5
REMARK    5  A    between atoms: S1_5  and  S2_6
REMARK    6  A    between atoms: S2_6  and  C5_7
REMARK    7  A    between atoms: C5_7  and  C6_8
REMARK                            x       y       z     vdW  Elec       q    Type
REMARK                         _______ _______ _______ _____ _____    ______ ____
ROOT
ATOM      1  C4  UNL     1       9.989  49.753  18.380  0.00  0.00    +0.000 C 
ENDROOT
BRANCH   1   4
ATOM      2  C1  UNL     1       7.810  48.396  15.487  0.00  0.00    +0.000 C 
ATOM      3  C2  UNL     1       8.318  49.269  16.596  0.00  0.00    +0.000 C 
ATOM      4  C3  UNL     1       9.421  48.918  17.269  0.00  0.00    +0.000 C 
BRANCH   3   5
ATOM      5  O1  UNL     1       7.650  50.452  16.912  0.00  0.00    +0.000 OA
ATOM      6  H12 UNL     1       7.375  51.114  16.196  0.00  0.00    +0.000 HD
ENDBRANCH   3   5
ENDBRANCH   1   4
BRANCH   1   7
ATOM      7  S1  UNL     1       9.959  48.842  19.962  0.00  0.00    +0.000 S 
BRANCH   7   8
ATOM      8  S2  UNL     1       7.989  49.489  20.489  0.00  0.00    +0.000 S 
BRANCH   8   9
ATOM      9  C5  UNL     1       7.182  47.955  19.926  0.00  0.00    +0.000 C 
BRANCH   9  10
ATOM     10  C6  UNL     1       6.828  47.096  21.105  0.00  0.00    +0.000 C 
ATOM     11  C7  UNL     1       7.457  47.213  22.279  0.00  0.00    +0.000 C 
ENDBRANCH   9  10
ENDBRANCH   8   9
ENDBRANCH   7   8
ENDBRANCH   1   7
TORSDOF 6
ENDMDL
