MODEL 1
REMARK VINA RESULT:      -3.2      0.000      0.000
REMARK  Name = .\Allicin.pdb
REMARK  7 active torsions:
REMARK  status: ('A' for Active; 'I' for Inactive)
REMARK    1  A    between atoms: C1_1  and  C2_2
REMARK    2  A    between atoms: C2_2  and  O1_10
REMARK    3  A    between atoms: C3_3  and  C4_4
REMARK    4  A    between atoms: C4_4  and  S1_5
REMARK    5  A    between atoms: S1_5  and  S2_6
REMARK    6  A    between atoms: S2_6  and  C5_7
REMARK    7  A    between atoms: C5_7  and  C6_8
REMARK                            x       y       z     vdW  Elec       q    Type
REMARK                         _______ _______ _______ _____ _____    ______ ____
ROOT
ATOM      1  C4  UNL     1     -19.290  70.483 125.881  0.00  0.00    +0.000 C 
ENDROOT
BRANCH   1   4
ATOM      2  C1  UNL     1     -16.617  73.247 125.465  0.00  0.00    +0.000 C 
ATOM      3  C2  UNL     1     -17.419  72.121 126.046  0.00  0.00    +0.000 C 
ATOM      4  C3  UNL     1     -18.454  71.618 125.361  0.00  0.00    +0.000 C 
BRANCH   3   5
ATOM      5  O1  UNL     1     -17.075  71.591 127.289  0.00  0.00    +0.000 OA
ATOM      6  H12 UNL     1     -17.493  71.934 128.146  0.00  0.00    +0.000 HD
ENDBRANCH   3   5
ENDBRANCH   1   4
BRANCH   1   7
ATOM      7  S1  UNL     1     -19.188  69.036 124.773  0.00  0.00    +0.000 S 
BRANCH   7   8
ATOM      8  S2  UNL     1     -17.448  68.226 125.716  0.00  0.00    +0.000 S 
BRANCH   8   9
ATOM      9  C5  UNL     1     -16.354  68.550 124.295  0.00  0.00    +0.000 C 
BRANCH   9  10
ATOM     10  C6  UNL     1     -15.223  69.446 124.709  0.00  0.00    +0.000 C 
ATOM     11  C7  UNL     1     -13.951  69.165 124.409  0.00  0.00    +0.000 C 
ENDBRANCH   9  10
ENDBRANCH   8   9
ENDBRANCH   7   8
ENDBRANCH   1   7
TORSDOF 6
ENDMDL
MODEL 2
REMARK VINA RESULT:      -3.2      1.638      4.000
REMARK  Name = .\Allicin.pdb
REMARK  7 active torsions:
REMARK  status: ('A' for Active; 'I' for Inactive)
REMARK    1  A    between atoms: C1_1  and  C2_2
REMARK    2  A    between atoms: C2_2  and  O1_10
REMARK    3  A    between atoms: C3_3  and  C4_4
REMARK    4  A    between atoms: C4_4  and  S1_5
REMARK    5  A    between atoms: S1_5  and  S2_6
REMARK    6  A    between atoms: S2_6  and  C5_7
REMARK    7  A    between atoms: C5_7  and  C6_8
REMARK                            x       y       z     vdW  Elec       q    Type
REMARK                         _______ _______ _______ _____ _____    ______ ____
ROOT
ATOM      1  C4  UNL     1     -17.062  68.894 126.260  0.00  0.00    +0.000 C 
ENDROOT
BRANCH   1   4
ATOM      2  C1  UNL     1     -13.933  68.415 124.039  0.00  0.00    +0.000 C 
ATOM      3  C2  UNL     1     -15.108  69.049 124.723  0.00  0.00    +0.000 C 
ATOM      4  C3  UNL     1     -15.880  68.317 125.537  0.00  0.00    +0.000 C 
BRANCH   3   5
ATOM      5  O1  UNL     1     -15.384  70.401 124.521  0.00  0.00    +0.000 OA
ATOM      6  H12 UNL     1     -15.704  70.995 125.276  0.00  0.00    +0.000 HD
ENDBRANCH   3   5
ENDBRANCH   1   4
BRANCH   1   7
ATOM      7  S1  UNL     1     -18.568  68.797 125.232  0.00  0.00    +0.000 S 
BRANCH   7   8
ATOM      8  S2  UNL     1     -18.992  70.890 125.361  0.00  0.00    +0.000 S 
BRANCH   8   9
ATOM      9  C5  UNL     1     -17.986  71.145 126.859  0.00  0.00    +0.000 C 
BRANCH   9  10
ATOM     10  C6  UNL     1     -17.513  72.569 126.926  0.00  0.00    +0.000 C 
ATOM     11  C7  UNL     1     -16.995  73.193 125.864  0.00  0.00    +0.000 C 
ENDBRANCH   9  10
ENDBRANCH   8   9
ENDBRANCH   7   8
ENDBRANCH   1   7
TORSDOF 6
ENDMDL
MODEL 3
REMARK VINA RESULT:      -2.9      1.393      3.352
REMARK  Name = .\Allicin.pdb
REMARK  7 active torsions:
REMARK  status: ('A' for Active; 'I' for Inactive)
REMARK    1  A    between atoms: C1_1  and  C2_2
REMARK    2  A    between atoms: C2_2  and  O1_10
REMARK    3  A    between atoms: C3_3  and  C4_4
REMARK    4  A    between atoms: C4_4  and  S1_5
REMARK    5  A    between atoms: S1_5  and  S2_6
REMARK    6  A    between atoms: S2_6  and  C5_7
REMARK    7  A    between atoms: C5_7  and  C6_8
REMARK                            x       y       z     vdW  Elec       q    Type
REMARK                         _______ _______ _______ _____ _____    ______ ____
ROOT
ATOM      1  C4  UNL     1     -16.543  69.586 125.005  0.00  0.00    +0.000 C 
ENDROOT
BRANCH   1   4
ATOM      2  C1  UNL     1     -16.735  73.419 125.487  0.00  0.00    +0.000 C 
ATOM      3  C2  UNL     1     -16.784  71.946 125.767  0.00  0.00    +0.000 C 
ATOM      4  C3  UNL     1     -16.522  71.072 124.787  0.00  0.00    +0.000 C 
BRANCH   3   5
ATOM      5  O1  UNL     1     -17.086  71.491 127.051  0.00  0.00    +0.000 OA
ATOM      6  H12 UNL     1     -17.538  70.597 127.205  0.00  0.00    +0.000 HD
ENDBRANCH   3   5
ENDBRANCH   1   4
BRANCH   1   7
ATOM      7  S1  UNL     1     -18.107  68.860 124.408  0.00  0.00    +0.000 S 
BRANCH   7   8
ATOM      8  S2  UNL     1     -18.819  68.369 126.365  0.00  0.00    +0.000 S 
BRANCH   8   9
ATOM      9  C5  UNL     1     -20.237  69.510 126.290  0.00  0.00    +0.000 C 
BRANCH   9  10
ATOM     10  C6  UNL     1     -20.127  70.389 125.077  0.00  0.00    +0.000 C 
ATOM     11  C7  UNL     1     -20.491  71.674 125.100  0.00  0.00    +0.000 C 
ENDBRANCH   9  10
ENDBRANCH   8   9
ENDBRANCH   7   8
ENDBRANCH   1   7
TORSDOF 6
ENDMDL
MODEL 4
REMARK VINA RESULT:      -2.6      1.706      2.208
REMARK  Name = .\Allicin.pdb
REMARK  7 active torsions:
REMARK  status: ('A' for Active; 'I' for Inactive)
REMARK    1  A    between atoms: C1_1  and  C2_2
REMARK    2  A    between atoms: C2_2  and  O1_10
REMARK    3  A    between atoms: C3_3  and  C4_4
REMARK    4  A    between atoms: C4_4  and  S1_5
REMARK    5  A    between atoms: S1_5  and  S2_6
REMARK    6  A    between atoms: S2_6  and  C5_7
REMARK    7  A    between atoms: C5_7  and  C6_8
REMARK                            x       y       z     vdW  Elec       q    Type
REMARK                         _______ _______ _______ _____ _____    ______ ____
ROOT
ATOM      1  C4  UNL     1     -18.143  71.647 126.694  0.00  0.00    +0.000 C 
ENDROOT
BRANCH   1   4
ATOM      2  C1  UNL     1     -15.594  74.126 125.173  0.00  0.00    +0.000 C 
ATOM      3  C2  UNL     1     -16.320  72.855 125.501  0.00  0.00    +0.000 C 
ATOM      4  C3  UNL     1     -17.367  72.881 126.335  0.00  0.00    +0.000 C 
BRANCH   3   5
ATOM      5  O1  UNL     1     -15.912  71.653 124.924  0.00  0.00    +0.000 OA
ATOM      6  H12 UNL     1     -15.082  71.166 125.241  0.00  0.00    +0.000 HD
ENDBRANCH   3   5
ENDBRANCH   1   4
BRANCH   1   7
ATOM      7  S1  UNL     1     -19.331  71.215 125.376  0.00  0.00    +0.000 S 
BRANCH   7   8
ATOM      8  S2  UNL     1     -18.927  69.117 125.470  0.00  0.00    +0.000 S 
BRANCH   8   9
ATOM      9  C5  UNL     1     -17.770  69.259 126.871  0.00  0.00    +0.000 C 
BRANCH   9  10
ATOM     10  C6  UNL     1     -16.624  68.305 126.691  0.00  0.00    +0.000 C 
ATOM     11  C7  UNL     1     -15.971  68.196 125.530  0.00  0.00    +0.000 C 
ENDBRANCH   9  10
ENDBRANCH   8   9
ENDBRANCH   7   8
ENDBRANCH   1   7
TORSDOF 6
ENDMDL
MODEL 5
REMARK VINA RESULT:      -2.6      2.088      3.398
REMARK  Name = .\Allicin.pdb
REMARK  7 active torsions:
REMARK  status: ('A' for Active; 'I' for Inactive)
REMARK    1  A    between atoms: C1_1  and  C2_2
REMARK    2  A    between atoms: C2_2  and  O1_10
REMARK    3  A    between atoms: C3_3  and  C4_4
REMARK    4  A    between atoms: C4_4  and  S1_5
REMARK    5  A    between atoms: S1_5  and  S2_6
REMARK    6  A    between atoms: S2_6  and  C5_7
REMARK    7  A    between atoms: C5_7  and  C6_8
REMARK                            x       y       z     vdW  Elec       q    Type
REMARK                         _______ _______ _______ _____ _____    ______ ____
ROOT
ATOM      1  C4  UNL     1     -19.191  68.326 124.465  0.00  0.00    +0.000 C 
ENDROOT
BRANCH   1   4
ATOM      2  C1  UNL     1     -21.256  71.495 125.273  0.00  0.00    +0.000 C 
ATOM      3  C2  UNL     1     -20.448  70.242 125.443  0.00  0.00    +0.000 C 
ATOM      4  C3  UNL     1     -20.013  69.578 124.364  0.00  0.00    +0.000 C 
BRANCH   3   5
ATOM      5  O1  UNL     1     -20.138  69.782 126.722  0.00  0.00    +0.000 OA
ATOM      6  H12 UNL     1     -19.258  69.321 126.922  0.00  0.00    +0.000 HD
ENDBRANCH   3   5
ENDBRANCH   1   4
BRANCH   1   7
ATOM      7  S1  UNL     1     -17.533  68.574 123.743  0.00  0.00    +0.000 S 
BRANCH   7   8
ATOM      8  S2  UNL     1     -16.691  69.385 125.534  0.00  0.00    +0.000 S 
BRANCH   8   9
ATOM      9  C5  UNL     1     -16.332  71.013 124.797  0.00  0.00    +0.000 C 
BRANCH   9  10
ATOM     10  C6  UNL     1     -17.311  72.034 125.303  0.00  0.00    +0.000 C 
ATOM     11  C7  UNL     1     -17.449  72.296 126.606  0.00  0.00    +0.000 C 
ENDBRANCH   9  10
ENDBRANCH   8   9
ENDBRANCH   7   8
ENDBRANCH   1   7
TORSDOF 6
ENDMDL
MODEL 6
REMARK VINA RESULT:      -2.5      2.189      3.703
REMARK  Name = .\Allicin.pdb
REMARK  7 active torsions:
REMARK  status: ('A' for Active; 'I' for Inactive)
REMARK    1  A    between atoms: C1_1  and  C2_2
REMARK    2  A    between atoms: C2_2  and  O1_10
REMARK    3  A    between atoms: C3_3  and  C4_4
REMARK    4  A    between atoms: C4_4  and  S1_5
REMARK    5  A    between atoms: S1_5  and  S2_6
REMARK    6  A    between atoms: S2_6  and  C5_7
REMARK    7  A    between atoms: C5_7  and  C6_8
REMARK                            x       y       z     vdW  Elec       q    Type
REMARK                         _______ _______ _______ _____ _____    ______ ____
ROOT
ATOM      1  C4  UNL     1     -17.534  68.988 125.351  0.00  0.00    +0.000 C 
ENDROOT
BRANCH   1   4
ATOM      2  C1  UNL     1     -16.190  68.195 128.890  0.00  0.00    +0.000 C 
ATOM      3  C2  UNL     1     -16.717  68.948 127.704  0.00  0.00    +0.000 C 
ATOM      4  C3  UNL     1     -16.993  68.295 126.569  0.00  0.00    +0.000 C 
BRANCH   3   5
ATOM      5  O1  UNL     1     -16.932  70.324 127.793  0.00  0.00    +0.000 OA
ATOM      6  H12 UNL     1     -16.886  70.811 128.680  0.00  0.00    +0.000 HD
ENDBRANCH   3   5
ENDBRANCH   1   4
BRANCH   1   7
ATOM      7  S1  UNL     1     -19.357  68.911 125.311  0.00  0.00    +0.000 S 
BRANCH   7   8
ATOM      8  S2  UNL     1     -19.613  71.035 125.345  0.00  0.00    +0.000 S 
BRANCH   8   9
ATOM      9  C5  UNL     1     -17.859  71.393 125.006  0.00  0.00    +0.000 C 
BRANCH   9  10
ATOM     10  C6  UNL     1     -17.512  72.771 125.490  0.00  0.00    +0.000 C 
ATOM     11  C7  UNL     1     -16.305  73.308 125.290  0.00  0.00    +0.000 C 
ENDBRANCH   9  10
ENDBRANCH   8   9
ENDBRANCH   7   8
ENDBRANCH   1   7
TORSDOF 6
ENDMDL
MODEL 7
REMARK VINA RESULT:      -2.4      2.201      4.406
REMARK  Name = .\Allicin.pdb
REMARK  7 active torsions:
REMARK  status: ('A' for Active; 'I' for Inactive)
REMARK    1  A    between atoms: C1_1  and  C2_2
REMARK    2  A    between atoms: C2_2  and  O1_10
REMARK    3  A    between atoms: C3_3  and  C4_4
REMARK    4  A    between atoms: C4_4  and  S1_5
REMARK    5  A    between atoms: S1_5  and  S2_6
REMARK    6  A    between atoms: S2_6  and  C5_7
REMARK    7  A    between atoms: C5_7  and  C6_8
REMARK                            x       y       z     vdW  Elec       q    Type
REMARK                         _______ _______ _______ _____ _____    ______ ____
ROOT
ATOM      1  C4  UNL     1     -17.275  69.103 126.205  0.00  0.00    +0.000 C 
ENDROOT
BRANCH   1   4
ATOM      2  C1  UNL     1     -13.929  69.034 124.267  0.00  0.00    +0.000 C 
ATOM      3  C2  UNL     1     -15.288  69.454 124.744  0.00  0.00    +0.000 C 
ATOM      4  C3  UNL     1     -15.920  68.730 125.677  0.00  0.00    +0.000 C 
BRANCH   3   5
ATOM      5  O1  UNL     1     -15.882  70.605 124.227  0.00  0.00    +0.000 OA
ATOM      6  H12 UNL     1     -15.773  71.506 124.678  0.00  0.00    +0.000 HD
ENDBRANCH   3   5
ENDBRANCH   1   4
BRANCH   1   7
ATOM      7  S1  UNL     1     -18.599  68.362 125.190  0.00  0.00    +0.000 S 
BRANCH   7   8
ATOM      8  S2  UNL     1     -20.071  68.459 126.740  0.00  0.00    +0.000 S 
BRANCH   8   9
ATOM      9  C5  UNL     1     -21.163  69.594 125.825  0.00  0.00    +0.000 C 
BRANCH   9  10
ATOM     10  C6  UNL     1     -20.429  70.862 125.495  0.00  0.00    +0.000 C 
ATOM     11  C7  UNL     1     -20.972  71.816 124.732  0.00  0.00    +0.000 C 
ENDBRANCH   9  10
ENDBRANCH   8   9
ENDBRANCH   7   8
ENDBRANCH   1   7
TORSDOF 6
ENDMDL
MODEL 8
REMARK VINA RESULT:      -2.3      2.361      2.945
REMARK  Name = .\Allicin.pdb
REMARK  7 active torsions:
REMARK  status: ('A' for Active; 'I' for Inactive)
REMARK    1  A    between atoms: C1_1  and  C2_2
REMARK    2  A    between atoms: C2_2  and  O1_10
REMARK    3  A    between atoms: C3_3  and  C4_4
REMARK    4  A    between atoms: C4_4  and  S1_5
REMARK    5  A    between atoms: S1_5  and  S2_6
REMARK    6  A    between atoms: S2_6  and  C5_7
REMARK    7  A    between atoms: C5_7  and  C6_8
REMARK                            x       y       z     vdW  Elec       q    Type
REMARK                         _______ _______ _______ _____ _____    ______ ____
ROOT
ATOM      1  C4  UNL     1     -18.154  71.363 126.617  0.00  0.00    +0.000 C 
ENDROOT
BRANCH   1   4
ATOM      2  C1  UNL     1     -15.563  73.861 125.202  0.00  0.00    +0.000 C 
ATOM      3  C2  UNL     1     -16.772  73.306 125.895  0.00  0.00    +0.000 C 
ATOM      4  C3  UNL     1     -16.972  71.982 125.929  0.00  0.00    +0.000 C 
BRANCH   3   5
ATOM      5  O1  UNL     1     -17.675  74.169 126.516  0.00  0.00    +0.000 OA
ATOM      6  H12 UNL     1     -17.590  75.175 126.433  0.00  0.00    +0.000 HD
ENDBRANCH   3   5
ENDBRANCH   1   4
BRANCH   1   7
ATOM      7  S1  UNL     1     -19.539  71.128 125.451  0.00  0.00    +0.000 S 
BRANCH   7   8
ATOM      8  S2  UNL     1     -19.830  69.069 125.951  0.00  0.00    +0.000 S 
BRANCH   8   9
ATOM      9  C5  UNL     1     -18.441  68.478 124.929  0.00  0.00    +0.000 C 
BRANCH   9  10
ATOM     10  C6  UNL     1     -18.793  68.581 123.473  0.00  0.00    +0.000 C 
ATOM     11  C7  UNL     1     -19.984  68.196 123.004  0.00  0.00    +0.000 C 
ENDBRANCH   9  10
ENDBRANCH   8   9
ENDBRANCH   7   8
ENDBRANCH   1   7
TORSDOF 6
ENDMDL
MODEL 9
REMARK VINA RESULT:      -2.2      2.193      4.073
REMARK  Name = .\Allicin.pdb
REMARK  7 active torsions:
REMARK  status: ('A' for Active; 'I' for Inactive)
REMARK    1  A    between atoms: C1_1  and  C2_2
REMARK    2  A    between atoms: C2_2  and  O1_10
REMARK    3  A    between atoms: C3_3  and  C4_4
REMARK    4  A    between atoms: C4_4  and  S1_5
REMARK    5  A    between atoms: S1_5  and  S2_6
REMARK    6  A    between atoms: S2_6  and  C5_7
REMARK    7  A    between atoms: C5_7  and  C6_8
REMARK                            x       y       z     vdW  Elec       q    Type
REMARK                         _______ _______ _______ _____ _____    ______ ____
ROOT
ATOM      1  C4  UNL     1     -16.841  69.396 125.017  0.00  0.00    +0.000 C 
ENDROOT
BRANCH   1   4
ATOM      2  C1  UNL     1     -17.261  68.514 128.759  0.00  0.00    +0.000 C 
ATOM      3  C2  UNL     1     -17.073  69.301 127.495  0.00  0.00    +0.000 C 
ATOM      4  C3  UNL     1     -17.015  68.667 126.317  0.00  0.00    +0.000 C 
BRANCH   3   5
ATOM      5  O1  UNL     1     -16.974  70.691 127.550  0.00  0.00    +0.000 OA
ATOM      6  H12 UNL     1     -17.703  71.290 127.180  0.00  0.00    +0.000 HD
ENDBRANCH   3   5
ENDBRANCH   1   4
BRANCH   1   7
ATOM      7  S1  UNL     1     -17.789  68.589 123.682  0.00  0.00    +0.000 S 
BRANCH   7   8
ATOM      8  S2  UNL     1     -19.564  68.362 124.854  0.00  0.00    +0.000 S 
BRANCH   8   9
ATOM      9  C5  UNL     1     -20.551  69.507 123.837  0.00  0.00    +0.000 C 
BRANCH   9  10
ATOM     10  C6  UNL     1     -20.814  70.775 124.597  0.00  0.00    +0.000 C 
ATOM     11  C7  UNL     1     -19.916  71.293 125.441  0.00  0.00    +0.000 C 
ENDBRANCH   9  10
ENDBRANCH   8   9
ENDBRANCH   7   8
ENDBRANCH   1   7
TORSDOF 6
ENDMDL
