MODEL 1
REMARK VINA RESULT:      -3.3      0.000      0.000
REMARK  Name = .\Allicin.pdb
REMARK  7 active torsions:
REMARK  status: ('A' for Active; 'I' for Inactive)
REMARK    1  A    between atoms: C1_1  and  C2_2
REMARK    2  A    between atoms: C2_2  and  O1_10
REMARK    3  A    between atoms: C3_3  and  C4_4
REMARK    4  A    between atoms: C4_4  and  S1_5
REMARK    5  A    between atoms: S1_5  and  S2_6
REMARK    6  A    between atoms: S2_6  and  C5_7
REMARK    7  A    between atoms: C5_7  and  C6_8
REMARK                            x       y       z     vdW  Elec       q    Type
REMARK                         _______ _______ _______ _____ _____    ______ ____
ROOT
ATOM      1  C4  UNL     1      -1.331  33.481  27.741  0.00  0.00    +0.000 C 
ENDROOT
BRANCH   1   4
ATOM      2  C1  UNL     1      -1.845  35.820  30.778  0.00  0.00    +0.000 C 
ATOM      3  C2  UNL     1      -1.806  35.306  29.369  0.00  0.00    +0.000 C 
ATOM      4  C3  UNL     1      -1.383  34.059  29.126  0.00  0.00    +0.000 C 
BRANCH   3   5
ATOM      5  O1  UNL     1      -2.225  36.123  28.319  0.00  0.00    +0.000 OA
ATOM      6  H12 UNL     1      -1.680  36.216  27.470  0.00  0.00    +0.000 HD
ENDBRANCH   3   5
ENDBRANCH   1   4
BRANCH   1   7
ATOM      7  S1  UNL     1      -2.418  32.021  27.602  0.00  0.00    +0.000 S 
BRANCH   7   8
ATOM      8  S2  UNL     1      -1.995  31.309  29.574  0.00  0.00    +0.000 S 
BRANCH   8   9
ATOM      9  C5  UNL     1      -3.736  31.338  30.111  0.00  0.00    +0.000 C 
BRANCH   9  10
ATOM     10  C6  UNL     1      -3.828  31.807  31.534  0.00  0.00    +0.000 C 
ATOM     11  C7  UNL     1      -2.749  32.186  32.226  0.00  0.00    +0.000 C 
ENDBRANCH   9  10
ENDBRANCH   8   9
ENDBRANCH   7   8
ENDBRANCH   1   7
TORSDOF 6
ENDMDL
MODEL 2
REMARK VINA RESULT:      -3.0      2.635      4.007
REMARK  Name = .\Allicin.pdb
REMARK  7 active torsions:
REMARK  status: ('A' for Active; 'I' for Inactive)
REMARK    1  A    between atoms: C1_1  and  C2_2
REMARK    2  A    between atoms: C2_2  and  O1_10
REMARK    3  A    between atoms: C3_3  and  C4_4
REMARK    4  A    between atoms: C4_4  and  S1_5
REMARK    5  A    between atoms: S1_5  and  S2_6
REMARK    6  A    between atoms: S2_6  and  C5_7
REMARK    7  A    between atoms: C5_7  and  C6_8
REMARK                            x       y       z     vdW  Elec       q    Type
REMARK                         _______ _______ _______ _____ _____    ______ ____
ROOT
ATOM      1  C4  UNL     1       0.024  31.454  29.764  0.00  0.00    +0.000 C 
ENDROOT
BRANCH   1   4
ATOM      2  C1  UNL     1      -3.086  32.001  31.996  0.00  0.00    +0.000 C 
ATOM      3  C2  UNL     1      -1.665  31.792  31.564  0.00  0.00    +0.000 C 
ATOM      4  C3  UNL     1      -1.377  31.655  30.263  0.00  0.00    +0.000 C 
BRANCH   3   5
ATOM      5  O1  UNL     1      -0.647  31.756  32.516  0.00  0.00    +0.000 OA
ATOM      6  H12 UNL     1       0.320  31.928  32.265  0.00  0.00    +0.000 HD
ENDBRANCH   3   5
ENDBRANCH   1   4
BRANCH   1   7
ATOM      7  S1  UNL     1       0.526  32.818  28.659  0.00  0.00    +0.000 S 
BRANCH   7   8
ATOM      8  S2  UNL     1      -1.459  33.205  27.962  0.00  0.00    +0.000 S 
BRANCH   8   9
ATOM      9  C5  UNL     1      -1.438  34.961  28.448  0.00  0.00    +0.000 C 
BRANCH   9  10
ATOM     10  C6  UNL     1      -2.312  35.173  29.651  0.00  0.00    +0.000 C 
ATOM     11  C7  UNL     1      -1.812  35.562  30.828  0.00  0.00    +0.000 C 
ENDBRANCH   9  10
ENDBRANCH   8   9
ENDBRANCH   7   8
ENDBRANCH   1   7
TORSDOF 6
ENDMDL
MODEL 3
REMARK VINA RESULT:      -3.0      2.394      3.260
REMARK  Name = .\Allicin.pdb
REMARK  7 active torsions:
REMARK  status: ('A' for Active; 'I' for Inactive)
REMARK    1  A    between atoms: C1_1  and  C2_2
REMARK    2  A    between atoms: C2_2  and  O1_10
REMARK    3  A    between atoms: C3_3  and  C4_4
REMARK    4  A    between atoms: C4_4  and  S1_5
REMARK    5  A    between atoms: S1_5  and  S2_6
REMARK    6  A    between atoms: S2_6  and  C5_7
REMARK    7  A    between atoms: C5_7  and  C6_8
REMARK                            x       y       z     vdW  Elec       q    Type
REMARK                         _______ _______ _______ _____ _____    ______ ____
ROOT
ATOM      1  C4  UNL     1      -0.589  35.355  29.372  0.00  0.00    +0.000 C 
ENDROOT
BRANCH   1   4
ATOM      2  C1  UNL     1      -0.101  31.947  27.610  0.00  0.00    +0.000 C 
ATOM      3  C2  UNL     1       0.178  33.197  28.392  0.00  0.00    +0.000 C 
ATOM      4  C3  UNL     1      -0.799  34.091  28.589  0.00  0.00    +0.000 C 
BRANCH   3   5
ATOM      5  O1  UNL     1       1.448  33.416  28.924  0.00  0.00    +0.000 OA
ATOM      6  H12 UNL     1       2.144  33.962  28.429  0.00  0.00    +0.000 HD
ENDBRANCH   3   5
ENDBRANCH   1   4
BRANCH   1   7
ATOM      7  S1  UNL     1      -1.847  35.528  30.683  0.00  0.00    +0.000 S 
BRANCH   7   8
ATOM      8  S2  UNL     1      -2.809  33.670  30.237  0.00  0.00    +0.000 S 
BRANCH   8   9
ATOM      9  C5  UNL     1      -2.236  32.846  31.758  0.00  0.00    +0.000 C 
BRANCH   9  10
ATOM     10  C6  UNL     1      -3.271  31.869  32.236  0.00  0.00    +0.000 C 
ATOM     11  C7  UNL     1      -4.363  31.589  31.519  0.00  0.00    +0.000 C 
ENDBRANCH   9  10
ENDBRANCH   8   9
ENDBRANCH   7   8
ENDBRANCH   1   7
TORSDOF 6
ENDMDL
MODEL 4
REMARK VINA RESULT:      -2.8      2.210      3.853
REMARK  Name = .\Allicin.pdb
REMARK  7 active torsions:
REMARK  status: ('A' for Active; 'I' for Inactive)
REMARK    1  A    between atoms: C1_1  and  C2_2
REMARK    2  A    between atoms: C2_2  and  O1_10
REMARK    3  A    between atoms: C3_3  and  C4_4
REMARK    4  A    between atoms: C4_4  and  S1_5
REMARK    5  A    between atoms: S1_5  and  S2_6
REMARK    6  A    between atoms: S2_6  and  C5_7
REMARK    7  A    between atoms: C5_7  and  C6_8
REMARK                            x       y       z     vdW  Elec       q    Type
REMARK                         _______ _______ _______ _____ _____    ______ ____
ROOT
ATOM      1  C4  UNL     1      -2.023  34.892  29.981  0.00  0.00    +0.000 C 
ENDROOT
BRANCH   1   4
ATOM      2  C1  UNL     1      -3.679  31.567  31.057  0.00  0.00    +0.000 C 
ATOM      3  C2  UNL     1      -3.464  32.907  30.418  0.00  0.00    +0.000 C 
ATOM      4  C3  UNL     1      -2.307  33.555  30.602  0.00  0.00    +0.000 C 
BRANCH   3   5
ATOM      5  O1  UNL     1      -4.463  33.467  29.622  0.00  0.00    +0.000 OA
ATOM      6  H12 UNL     1      -4.603  34.469  29.573  0.00  0.00    +0.000 HD
ENDBRANCH   3   5
ENDBRANCH   1   4
BRANCH   1   7
ATOM      7  S1  UNL     1      -1.296  34.700  28.318  0.00  0.00    +0.000 S 
BRANCH   7   8
ATOM      8  S2  UNL     1      -0.052  33.050  28.870  0.00  0.00    +0.000 S 
BRANCH   8   9
ATOM      9  C5  UNL     1      -0.689  31.951  27.564  0.00  0.00    +0.000 C 
BRANCH   9  10
ATOM     10  C6  UNL     1      -1.989  32.482  27.032  0.00  0.00    +0.000 C 
ATOM     11  C7  UNL     1      -2.765  31.763  26.216  0.00  0.00    +0.000 C 
ENDBRANCH   9  10
ENDBRANCH   8   9
ENDBRANCH   7   8
ENDBRANCH   1   7
TORSDOF 6
ENDMDL
MODEL 5
REMARK VINA RESULT:      -2.7      1.767      2.525
REMARK  Name = .\Allicin.pdb
REMARK  7 active torsions:
REMARK  status: ('A' for Active; 'I' for Inactive)
REMARK    1  A    between atoms: C1_1  and  C2_2
REMARK    2  A    between atoms: C2_2  and  O1_10
REMARK    3  A    between atoms: C3_3  and  C4_4
REMARK    4  A    between atoms: C4_4  and  S1_5
REMARK    5  A    between atoms: S1_5  and  S2_6
REMARK    6  A    between atoms: S2_6  and  C5_7
REMARK    7  A    between atoms: C5_7  and  C6_8
REMARK                            x       y       z     vdW  Elec       q    Type
REMARK                         _______ _______ _______ _____ _____    ______ ____
ROOT
ATOM      1  C4  UNL     1      -2.381  34.135  29.524  0.00  0.00    +0.000 C 
ENDROOT
BRANCH   1   4
ATOM      2  C1  UNL     1       1.087  32.866  28.375  0.00  0.00    +0.000 C 
ATOM      3  C2  UNL     1      -0.054  33.782  28.706  0.00  0.00    +0.000 C 
ATOM      4  C3  UNL     1      -1.206  33.273  29.162  0.00  0.00    +0.000 C 
BRANCH   3   5
ATOM      5  O1  UNL     1       0.093  35.160  28.555  0.00  0.00    +0.000 OA
ATOM      6  H12 UNL     1       0.203  35.585  27.641  0.00  0.00    +0.000 HD
ENDBRANCH   3   5
ENDBRANCH   1   4
BRANCH   1   7
ATOM      7  S1  UNL     1      -3.854  33.117  29.879  0.00  0.00    +0.000 S 
BRANCH   7   8
ATOM      8  S2  UNL     1      -2.729  31.363  30.365  0.00  0.00    +0.000 S 
BRANCH   8   9
ATOM      9  C5  UNL     1      -3.033  31.493  32.157  0.00  0.00    +0.000 C 
BRANCH   9  10
ATOM     10  C6  UNL     1      -1.873  32.173  32.827  0.00  0.00    +0.000 C 
ATOM     11  C7  UNL     1      -1.868  33.487  33.070  0.00  0.00    +0.000 C 
ENDBRANCH   9  10
ENDBRANCH   8   9
ENDBRANCH   7   8
ENDBRANCH   1   7
TORSDOF 6
ENDMDL
MODEL 6
REMARK VINA RESULT:      -2.7      2.471      3.744
REMARK  Name = .\Allicin.pdb
REMARK  7 active torsions:
REMARK  status: ('A' for Active; 'I' for Inactive)
REMARK    1  A    between atoms: C1_1  and  C2_2
REMARK    2  A    between atoms: C2_2  and  O1_10
REMARK    3  A    between atoms: C3_3  and  C4_4
REMARK    4  A    between atoms: C4_4  and  S1_5
REMARK    5  A    between atoms: S1_5  and  S2_6
REMARK    6  A    between atoms: S2_6  and  C5_7
REMARK    7  A    between atoms: C5_7  and  C6_8
REMARK                            x       y       z     vdW  Elec       q    Type
REMARK                         _______ _______ _______ _____ _____    ______ ____
ROOT
ATOM      1  C4  UNL     1      -2.400  34.799  29.565  0.00  0.00    +0.000 C 
ENDROOT
BRANCH   1   4
ATOM      2  C1  UNL     1      -2.827  31.879  32.065  0.00  0.00    +0.000 C 
ATOM      3  C2  UNL     1      -2.424  33.197  31.474  0.00  0.00    +0.000 C 
ATOM      4  C3  UNL     1      -2.762  33.493  30.212  0.00  0.00    +0.000 C 
BRANCH   3   5
ATOM      5  O1  UNL     1      -1.713  34.117  32.244  0.00  0.00    +0.000 OA
ATOM      6  H12 UNL     1      -2.078  34.468  33.122  0.00  0.00    +0.000 HD
ENDBRANCH   3   5
ENDBRANCH   1   4
BRANCH   1   7
ATOM      7  S1  UNL     1      -0.900  34.627  28.541  0.00  0.00    +0.000 S 
BRANCH   7   8
ATOM      8  S2  UNL     1      -1.463  32.726  27.737  0.00  0.00    +0.000 S 
BRANCH   8   9
ATOM      9  C5  UNL     1       0.251  32.129  27.575  0.00  0.00    +0.000 C 
BRANCH   9  10
ATOM     10  C6  UNL     1       0.891  32.025  28.930  0.00  0.00    +0.000 C 
ATOM     11  C7  UNL     1       0.351  31.298  29.912  0.00  0.00    +0.000 C 
ENDBRANCH   9  10
ENDBRANCH   8   9
ENDBRANCH   7   8
ENDBRANCH   1   7
TORSDOF 6
ENDMDL
MODEL 7
REMARK VINA RESULT:      -2.6      2.052      3.819
REMARK  Name = .\Allicin.pdb
REMARK  7 active torsions:
REMARK  status: ('A' for Active; 'I' for Inactive)
REMARK    1  A    between atoms: C1_1  and  C2_2
REMARK    2  A    between atoms: C2_2  and  O1_10
REMARK    3  A    between atoms: C3_3  and  C4_4
REMARK    4  A    between atoms: C4_4  and  S1_5
REMARK    5  A    between atoms: S1_5  and  S2_6
REMARK    6  A    between atoms: S2_6  and  C5_7
REMARK    7  A    between atoms: C5_7  and  C6_8
REMARK                            x       y       z     vdW  Elec       q    Type
REMARK                         _______ _______ _______ _____ _____    ______ ____
ROOT
ATOM      1  C4  UNL     1      -3.217  32.015  29.515  0.00  0.00    +0.000 C 
ENDROOT
BRANCH   1   4
ATOM      2  C1  UNL     1      -2.313  31.569  25.781  0.00  0.00    +0.000 C 
ATOM      3  C2  UNL     1      -2.490  32.184  27.138  0.00  0.00    +0.000 C 
ATOM      4  C3  UNL     1      -3.024  31.463  28.132  0.00  0.00    +0.000 C 
BRANCH   3   5
ATOM      5  O1  UNL     1      -2.082  33.498  27.364  0.00  0.00    +0.000 OA
ATOM      6  H12 UNL     1      -2.314  34.244  26.719  0.00  0.00    +0.000 HD
ENDBRANCH   3   5
ENDBRANCH   1   4
BRANCH   1   7
ATOM      7  S1  UNL     1      -2.008  31.298  30.679  0.00  0.00    +0.000 S 
BRANCH   7   8
ATOM      8  S2  UNL     1      -2.115  32.930  32.057  0.00  0.00    +0.000 S 
BRANCH   8   9
ATOM      9  C5  UNL     1      -2.480  34.173  30.774  0.00  0.00    +0.000 C 
BRANCH   9  10
ATOM     10  C6  UNL     1      -2.022  35.530  31.227  0.00  0.00    +0.000 C 
ATOM     11  C7  UNL     1      -1.752  35.793  32.509  0.00  0.00    +0.000 C 
ENDBRANCH   9  10
ENDBRANCH   8   9
ENDBRANCH   7   8
ENDBRANCH   1   7
TORSDOF 6
ENDMDL
MODEL 8
REMARK VINA RESULT:      -2.5      2.197      2.669
REMARK  Name = .\Allicin.pdb
REMARK  7 active torsions:
REMARK  status: ('A' for Active; 'I' for Inactive)
REMARK    1  A    between atoms: C1_1  and  C2_2
REMARK    2  A    between atoms: C2_2  and  O1_10
REMARK    3  A    between atoms: C3_3  and  C4_4
REMARK    4  A    between atoms: C4_4  and  S1_5
REMARK    5  A    between atoms: S1_5  and  S2_6
REMARK    6  A    between atoms: S2_6  and  C5_7
REMARK    7  A    between atoms: C5_7  and  C6_8
REMARK                            x       y       z     vdW  Elec       q    Type
REMARK                         _______ _______ _______ _____ _____    ______ ____
ROOT
ATOM      1  C4  UNL     1      -1.443  35.420  28.717  0.00  0.00    +0.000 C 
ENDROOT
BRANCH   1   4
ATOM      2  C1  UNL     1      -1.981  35.568  32.544  0.00  0.00    +0.000 C 
ATOM      3  C2  UNL     1      -2.082  35.142  31.110  0.00  0.00    +0.000 C 
ATOM      4  C3  UNL     1      -1.395  35.802  30.168  0.00  0.00    +0.000 C 
BRANCH   3   5
ATOM      5  O1  UNL     1      -2.879  34.052  30.762  0.00  0.00    +0.000 OA
ATOM      6  H12 UNL     1      -3.603  34.126  30.057  0.00  0.00    +0.000 HD
ENDBRANCH   3   5
ENDBRANCH   1   4
BRANCH   1   7
ATOM      7  S1  UNL     1      -0.246  34.092  28.351  0.00  0.00    +0.000 S 
BRANCH   7   8
ATOM      8  S2  UNL     1      -1.719  32.749  27.575  0.00  0.00    +0.000 S 
BRANCH   8   9
ATOM      9  C5  UNL     1      -1.068  31.298  28.464  0.00  0.00    +0.000 C 
BRANCH   9  10
ATOM     10  C6  UNL     1      -0.481  31.720  29.780  0.00  0.00    +0.000 C 
ATOM     11  C7  UNL     1      -0.981  31.298  30.945  0.00  0.00    +0.000 C 
ENDBRANCH   9  10
ENDBRANCH   8   9
ENDBRANCH   7   8
ENDBRANCH   1   7
TORSDOF 6
ENDMDL
MODEL 9
REMARK VINA RESULT:      -2.4      2.690      3.684
REMARK  Name = .\Allicin.pdb
REMARK  7 active torsions:
REMARK  status: ('A' for Active; 'I' for Inactive)
REMARK    1  A    between atoms: C1_1  and  C2_2
REMARK    2  A    between atoms: C2_2  and  O1_10
REMARK    3  A    between atoms: C3_3  and  C4_4
REMARK    4  A    between atoms: C4_4  and  S1_5
REMARK    5  A    between atoms: S1_5  and  S2_6
REMARK    6  A    between atoms: S2_6  and  C5_7
REMARK    7  A    between atoms: C5_7  and  C6_8
REMARK                            x       y       z     vdW  Elec       q    Type
REMARK                         _______ _______ _______ _____ _____    ______ ____
ROOT
ATOM      1  C4  UNL     1      -1.545  33.283  29.101  0.00  0.00    +0.000 C 
ENDROOT
BRANCH   1   4
ATOM      2  C1  UNL     1      -2.204  31.419  25.777  0.00  0.00    +0.000 C 
ATOM      3  C2  UNL     1      -2.431  32.119  27.084  0.00  0.00    +0.000 C 
ATOM      4  C3  UNL     1      -1.386  32.565  27.792  0.00  0.00    +0.000 C 
BRANCH   3   5
ATOM      5  O1  UNL     1      -3.730  32.316  27.551  0.00  0.00    +0.000 OA
ATOM      6  H12 UNL     1      -4.477  31.667  27.333  0.00  0.00    +0.000 HD
ENDBRANCH   3   5
ENDBRANCH   1   4
BRANCH   1   7
ATOM      7  S1  UNL     1      -0.914  34.992  28.989  0.00  0.00    +0.000 S 
BRANCH   7   8
ATOM      8  S2  UNL     1      -1.783  35.611  30.843  0.00  0.00    +0.000 S 
BRANCH   8   9
ATOM      9  C5  UNL     1      -2.413  33.954  31.263  0.00  0.00    +0.000 C 
BRANCH   9  10
ATOM     10  C6  UNL     1      -1.958  33.563  32.640  0.00  0.00    +0.000 C 
ATOM     11  C7  UNL     1      -2.026  32.302  33.075  0.00  0.00    +0.000 C 
ENDBRANCH   9  10
ENDBRANCH   8   9
ENDBRANCH   7   8
ENDBRANCH   1   7
TORSDOF 6
ENDMDL
