MODEL 1
REMARK VINA RESULT:      -3.5      0.000      0.000
REMARK  Name = .\Allicin.pdb
REMARK  7 active torsions:
REMARK  status: ('A' for Active; 'I' for Inactive)
REMARK    1  A    between atoms: C1_1  and  C2_2
REMARK    2  A    between atoms: C2_2  and  O1_10
REMARK    3  A    between atoms: C3_3  and  C4_4
REMARK    4  A    between atoms: C4_4  and  S1_5
REMARK    5  A    between atoms: S1_5  and  S2_6
REMARK    6  A    between atoms: S2_6  and  C5_7
REMARK    7  A    between atoms: C5_7  and  C6_8
REMARK                            x       y       z     vdW  Elec       q    Type
REMARK                         _______ _______ _______ _____ _____    ______ ____
ROOT
ATOM      1  C4  UNL     1     -11.955  61.135  37.252  0.00  0.00    +0.000 C 
ENDROOT
BRANCH   1   4
ATOM      2  C1  UNL     1     -14.412  63.250  39.362  0.00  0.00    +0.000 C 
ATOM      3  C2  UNL     1     -13.286  62.871  38.446  0.00  0.00    +0.000 C 
ATOM      4  C3  UNL     1     -13.057  61.581  38.169  0.00  0.00    +0.000 C 
BRANCH   3   5
ATOM      5  O1  UNL     1     -12.490  63.863  37.874  0.00  0.00    +0.000 OA
ATOM      6  H12 UNL     1     -12.402  64.781  38.294  0.00  0.00    +0.000 HD
ENDBRANCH   3   5
ENDBRANCH   1   4
BRANCH   1   7
ATOM      7  S1  UNL     1     -12.624  60.212  35.827  0.00  0.00    +0.000 S 
BRANCH   7   8
ATOM      8  S2  UNL     1     -14.613  60.116  36.610  0.00  0.00    +0.000 S 
BRANCH   8   9
ATOM      9  C5  UNL     1     -14.726  58.301  36.484  0.00  0.00    +0.000 C 
BRANCH   9  10
ATOM     10  C6  UNL     1     -13.355  57.693  36.561  0.00  0.00    +0.000 C 
ATOM     11  C7  UNL     1     -13.035  56.786  37.489  0.00  0.00    +0.000 C 
ENDBRANCH   9  10
ENDBRANCH   8   9
ENDBRANCH   7   8
ENDBRANCH   1   7
TORSDOF 6
ENDMDL
MODEL 2
REMARK VINA RESULT:      -3.5      2.692      4.667
REMARK  Name = .\Allicin.pdb
REMARK  7 active torsions:
REMARK  status: ('A' for Active; 'I' for Inactive)
REMARK    1  A    between atoms: C1_1  and  C2_2
REMARK    2  A    between atoms: C2_2  and  O1_10
REMARK    3  A    between atoms: C3_3  and  C4_4
REMARK    4  A    between atoms: C4_4  and  S1_5
REMARK    5  A    between atoms: S1_5  and  S2_6
REMARK    6  A    between atoms: S2_6  and  C5_7
REMARK    7  A    between atoms: C5_7  and  C6_8
REMARK                            x       y       z     vdW  Elec       q    Type
REMARK                         _______ _______ _______ _____ _____    ______ ____
ROOT
ATOM      1  C4  UNL     1     -12.855  58.012  36.849  0.00  0.00    +0.000 C 
ENDROOT
BRANCH   1   4
ATOM      2  C1  UNL     1     -15.867  59.938  35.374  0.00  0.00    +0.000 C 
ATOM      3  C2  UNL     1     -15.043  58.856  36.006  0.00  0.00    +0.000 C 
ATOM      4  C3  UNL     1     -13.733  59.048  36.210  0.00  0.00    +0.000 C 
BRANCH   3   5
ATOM      5  O1  UNL     1     -15.645  57.659  36.395  0.00  0.00    +0.000 OA
ATOM      6  H12 UNL     1     -15.232  56.761  36.173  0.00  0.00    +0.000 HD
ENDBRANCH   3   5
ENDBRANCH   1   4
BRANCH   1   7
ATOM      7  S1  UNL     1     -11.624  58.787  37.950  0.00  0.00    +0.000 S 
BRANCH   7   8
ATOM      8  S2  UNL     1     -11.785  60.719  37.046  0.00  0.00    +0.000 S 
BRANCH   8   9
ATOM      9  C5  UNL     1     -12.314  61.548  38.580  0.00  0.00    +0.000 C 
BRANCH   9  10
ATOM     10  C6  UNL     1     -13.546  62.368  38.323  0.00  0.00    +0.000 C 
ATOM     11  C7  UNL     1     -14.774  61.859  38.456  0.00  0.00    +0.000 C 
ENDBRANCH   9  10
ENDBRANCH   8   9
ENDBRANCH   7   8
ENDBRANCH   1   7
TORSDOF 6
ENDMDL
MODEL 3
REMARK VINA RESULT:      -3.4      1.444      2.175
REMARK  Name = .\Allicin.pdb
REMARK  7 active torsions:
REMARK  status: ('A' for Active; 'I' for Inactive)
REMARK    1  A    between atoms: C1_1  and  C2_2
REMARK    2  A    between atoms: C2_2  and  O1_10
REMARK    3  A    between atoms: C3_3  and  C4_4
REMARK    4  A    between atoms: C4_4  and  S1_5
REMARK    5  A    between atoms: S1_5  and  S2_6
REMARK    6  A    between atoms: S2_6  and  C5_7
REMARK    7  A    between atoms: C5_7  and  C6_8
REMARK                            x       y       z     vdW  Elec       q    Type
REMARK                         _______ _______ _______ _____ _____    ______ ____
ROOT
ATOM      1  C4  UNL     1     -11.661  61.144  38.209  0.00  0.00    +0.000 C 
ENDROOT
BRANCH   1   4
ATOM      2  C1  UNL     1     -14.437  63.558  39.401  0.00  0.00    +0.000 C 
ATOM      3  C2  UNL     1     -13.222  63.022  38.704  0.00  0.00    +0.000 C 
ATOM      4  C3  UNL     1     -12.858  61.746  38.887  0.00  0.00    +0.000 C 
BRANCH   3   5
ATOM      5  O1  UNL     1     -12.485  63.847  37.855  0.00  0.00    +0.000 OA
ATOM      6  H12 UNL     1     -12.658  63.872  36.857  0.00  0.00    +0.000 HD
ENDBRANCH   3   5
ENDBRANCH   1   4
BRANCH   1   7
ATOM      7  S1  UNL     1     -12.052  60.669  36.491  0.00  0.00    +0.000 S 
BRANCH   7   8
ATOM      8  S2  UNL     1     -12.882  58.771  37.028  0.00  0.00    +0.000 S 
BRANCH   8   9
ATOM      9  C5  UNL     1     -14.381  58.981  36.014  0.00  0.00    +0.000 C 
BRANCH   9  10
ATOM     10  C6  UNL     1     -14.777  60.429  35.973  0.00  0.00    +0.000 C 
ATOM     11  C7  UNL     1     -15.946  60.828  35.464  0.00  0.00    +0.000 C 
ENDBRANCH   9  10
ENDBRANCH   8   9
ENDBRANCH   7   8
ENDBRANCH   1   7
TORSDOF 6
ENDMDL
MODEL 4
REMARK VINA RESULT:      -3.4      1.878      2.576
REMARK  Name = .\Allicin.pdb
REMARK  7 active torsions:
REMARK  status: ('A' for Active; 'I' for Inactive)
REMARK    1  A    between atoms: C1_1  and  C2_2
REMARK    2  A    between atoms: C2_2  and  O1_10
REMARK    3  A    between atoms: C3_3  and  C4_4
REMARK    4  A    between atoms: C4_4  and  S1_5
REMARK    5  A    between atoms: S1_5  and  S2_6
REMARK    6  A    between atoms: S2_6  and  C5_7
REMARK    7  A    between atoms: C5_7  and  C6_8
REMARK                            x       y       z     vdW  Elec       q    Type
REMARK                         _______ _______ _______ _____ _____    ______ ____
ROOT
ATOM      1  C4  UNL     1     -11.842  59.179  37.333  0.00  0.00    +0.000 C 
ENDROOT
BRANCH   1   4
ATOM      2  C1  UNL     1     -13.185  62.671  38.311  0.00  0.00    +0.000 C 
ATOM      3  C2  UNL     1     -12.411  61.588  37.621  0.00  0.00    +0.000 C 
ATOM      4  C3  UNL     1     -12.576  60.311  37.991  0.00  0.00    +0.000 C 
BRANCH   3   5
ATOM      5  O1  UNL     1     -11.534  61.911  36.586  0.00  0.00    +0.000 OA
ATOM      6  H12 UNL     1     -11.720  62.680  35.953  0.00  0.00    +0.000 HD
ENDBRANCH   3   5
ENDBRANCH   1   4
BRANCH   1   7
ATOM      7  S1  UNL     1     -12.997  57.864  36.816  0.00  0.00    +0.000 S 
BRANCH   7   8
ATOM      8  S2  UNL     1     -14.727  58.839  37.611  0.00  0.00    +0.000 S 
BRANCH   8   9
ATOM      9  C5  UNL     1     -15.786  58.428  36.186  0.00  0.00    +0.000 C 
BRANCH   9  10
ATOM     10  C6  UNL     1     -16.010  59.650  35.341  0.00  0.00    +0.000 C 
ATOM     11  C7  UNL     1     -15.402  60.811  35.603  0.00  0.00    +0.000 C 
ENDBRANCH   9  10
ENDBRANCH   8   9
ENDBRANCH   7   8
ENDBRANCH   1   7
TORSDOF 6
ENDMDL
MODEL 5
REMARK VINA RESULT:      -3.3      2.286      4.417
REMARK  Name = .\Allicin.pdb
REMARK  7 active torsions:
REMARK  status: ('A' for Active; 'I' for Inactive)
REMARK    1  A    between atoms: C1_1  and  C2_2
REMARK    2  A    between atoms: C2_2  and  O1_10
REMARK    3  A    between atoms: C3_3  and  C4_4
REMARK    4  A    between atoms: C4_4  and  S1_5
REMARK    5  A    between atoms: S1_5  and  S2_6
REMARK    6  A    between atoms: S2_6  and  C5_7
REMARK    7  A    between atoms: C5_7  and  C6_8
REMARK                            x       y       z     vdW  Elec       q    Type
REMARK                         _______ _______ _______ _____ _____    ______ ____
ROOT
ATOM      1  C4  UNL     1     -13.453  57.861  36.709  0.00  0.00    +0.000 C 
ENDROOT
BRANCH   1   4
ATOM      2  C1  UNL     1     -16.298  60.095  35.341  0.00  0.00    +0.000 C 
ATOM      3  C2  UNL     1     -14.934  59.521  35.588  0.00  0.00    +0.000 C 
ATOM      4  C3  UNL     1     -14.788  58.489  36.428  0.00  0.00    +0.000 C 
BRANCH   3   5
ATOM      5  O1  UNL     1     -13.826  60.054  34.930  0.00  0.00    +0.000 OA
ATOM      6  H12 UNL     1     -12.900  60.024  35.341  0.00  0.00    +0.000 HD
ENDBRANCH   3   5
ENDBRANCH   1   4
BRANCH   1   7
ATOM      7  S1  UNL     1     -12.849  58.325  38.368  0.00  0.00    +0.000 S 
BRANCH   7   8
ATOM      8  S2  UNL     1     -11.523  59.839  37.644  0.00  0.00    +0.000 S 
BRANCH   8   9
ATOM      9  C5  UNL     1     -12.219  61.152  38.699  0.00  0.00    +0.000 C 
BRANCH   9  10
ATOM     10  C6  UNL     1     -13.299  61.888  37.959  0.00  0.00    +0.000 C 
ATOM     11  C7  UNL     1     -14.553  61.949  38.414  0.00  0.00    +0.000 C 
ENDBRANCH   9  10
ENDBRANCH   8   9
ENDBRANCH   7   8
ENDBRANCH   1   7
TORSDOF 6
ENDMDL
MODEL 6
REMARK VINA RESULT:      -3.3      1.737      2.125
REMARK  Name = .\Allicin.pdb
REMARK  7 active torsions:
REMARK  status: ('A' for Active; 'I' for Inactive)
REMARK    1  A    between atoms: C1_1  and  C2_2
REMARK    2  A    between atoms: C2_2  and  O1_10
REMARK    3  A    between atoms: C3_3  and  C4_4
REMARK    4  A    between atoms: C4_4  and  S1_5
REMARK    5  A    between atoms: S1_5  and  S2_6
REMARK    6  A    between atoms: S2_6  and  C5_7
REMARK    7  A    between atoms: C5_7  and  C6_8
REMARK                            x       y       z     vdW  Elec       q    Type
REMARK                         _______ _______ _______ _____ _____    ______ ____
ROOT
ATOM      1  C4  UNL     1     -14.840  61.193  37.455  0.00  0.00    +0.000 C 
ENDROOT
BRANCH   1   4
ATOM      2  C1  UNL     1     -12.623  63.458  39.672  0.00  0.00    +0.000 C 
ATOM      3  C2  UNL     1     -13.110  62.643  38.510  0.00  0.00    +0.000 C 
ATOM      4  C3  UNL     1     -14.290  62.014  38.585  0.00  0.00    +0.000 C 
BRANCH   3   5
ATOM      5  O1  UNL     1     -12.342  62.558  37.350  0.00  0.00    +0.000 OA
ATOM      6  H12 UNL     1     -12.698  62.119  36.509  0.00  0.00    +0.000 HD
ENDBRANCH   3   5
ENDBRANCH   1   4
BRANCH   1   7
ATOM      7  S1  UNL     1     -15.474  59.591  38.057  0.00  0.00    +0.000 S 
BRANCH   7   8
ATOM      8  S2  UNL     1     -14.888  58.511  36.307  0.00  0.00    +0.000 S 
BRANCH   8   9
ATOM      9  C5  UNL     1     -13.199  59.195  36.279  0.00  0.00    +0.000 C 
BRANCH   9  10
ATOM     10  C6  UNL     1     -12.328  58.457  37.254  0.00  0.00    +0.000 C 
ATOM     11  C7  UNL     1     -11.531  59.097  38.116  0.00  0.00    +0.000 C 
ENDBRANCH   9  10
ENDBRANCH   8   9
ENDBRANCH   7   8
ENDBRANCH   1   7
TORSDOF 6
ENDMDL
MODEL 7
REMARK VINA RESULT:      -3.2      2.624      3.872
REMARK  Name = .\Allicin.pdb
REMARK  7 active torsions:
REMARK  status: ('A' for Active; 'I' for Inactive)
REMARK    1  A    between atoms: C1_1  and  C2_2
REMARK    2  A    between atoms: C2_2  and  O1_10
REMARK    3  A    between atoms: C3_3  and  C4_4
REMARK    4  A    between atoms: C4_4  and  S1_5
REMARK    5  A    between atoms: S1_5  and  S2_6
REMARK    6  A    between atoms: S2_6  and  C5_7
REMARK    7  A    between atoms: C5_7  and  C6_8
REMARK                            x       y       z     vdW  Elec       q    Type
REMARK                         _______ _______ _______ _____ _____    ______ ____
ROOT
ATOM      1  C4  UNL     1     -12.692  61.461  38.309  0.00  0.00    +0.000 C 
ENDROOT
BRANCH   1   4
ATOM      2  C1  UNL     1     -12.979  59.320  35.101  0.00  0.00    +0.000 C 
ATOM      3  C2  UNL     1     -12.586  60.412  36.052  0.00  0.00    +0.000 C 
ATOM      4  C3  UNL     1     -13.056  60.405  37.306  0.00  0.00    +0.000 C 
BRANCH   3   5
ATOM      5  O1  UNL     1     -11.721  61.422  35.632  0.00  0.00    +0.000 OA
ATOM      6  H12 UNL     1     -10.769  61.222  35.349  0.00  0.00    +0.000 HD
ENDBRANCH   3   5
ENDBRANCH   1   4
BRANCH   1   7
ATOM      7  S1  UNL     1     -14.187  62.238  39.012  0.00  0.00    +0.000 S 
BRANCH   7   8
ATOM      8  S2  UNL     1     -15.363  60.454  38.913  0.00  0.00    +0.000 S 
BRANCH   8   9
ATOM      9  C5  UNL     1     -16.623  61.177  37.813  0.00  0.00    +0.000 C 
BRANCH   9  10
ATOM     10  C6  UNL     1     -16.747  60.355  36.562  0.00  0.00    +0.000 C 
ATOM     11  C7  UNL     1     -16.343  60.812  35.373  0.00  0.00    +0.000 C 
ENDBRANCH   9  10
ENDBRANCH   8   9
ENDBRANCH   7   8
ENDBRANCH   1   7
TORSDOF 6
ENDMDL
MODEL 8
REMARK VINA RESULT:      -3.0      3.453      4.404
REMARK  Name = .\Allicin.pdb
REMARK  7 active torsions:
REMARK  status: ('A' for Active; 'I' for Inactive)
REMARK    1  A    between atoms: C1_1  and  C2_2
REMARK    2  A    between atoms: C2_2  and  O1_10
REMARK    3  A    between atoms: C3_3  and  C4_4
REMARK    4  A    between atoms: C4_4  and  S1_5
REMARK    5  A    between atoms: S1_5  and  S2_6
REMARK    6  A    between atoms: S2_6  and  C5_7
REMARK    7  A    between atoms: C5_7  and  C6_8
REMARK                            x       y       z     vdW  Elec       q    Type
REMARK                         _______ _______ _______ _____ _____    ______ ____
ROOT
ATOM      1  C4  UNL     1     -13.086  57.723  36.780  0.00  0.00    +0.000 C 
ENDROOT
BRANCH   1   4
ATOM      2  C1  UNL     1     -15.579  60.329  35.383  0.00  0.00    +0.000 C 
ATOM      3  C2  UNL     1     -14.338  59.509  35.575  0.00  0.00    +0.000 C 
ATOM      4  C3  UNL     1     -14.293  58.584  36.542  0.00  0.00    +0.000 C 
BRANCH   3   5
ATOM      5  O1  UNL     1     -13.240  59.701  34.736  0.00  0.00    +0.000 OA
ATOM      6  H12 UNL     1     -12.591  58.951  34.531  0.00  0.00    +0.000 HD
ENDBRANCH   3   5
ENDBRANCH   1   4
BRANCH   1   7
ATOM      7  S1  UNL     1     -11.949  58.506  37.974  0.00  0.00    +0.000 S 
BRANCH   7   8
ATOM      8  S2  UNL     1     -11.937  56.836  39.311  0.00  0.00    +0.000 S 
BRANCH   8   9
ATOM      9  C5  UNL     1     -13.103  57.591  40.489  0.00  0.00    +0.000 C 
BRANCH   9  10
ATOM     10  C6  UNL     1     -14.269  56.673  40.720  0.00  0.00    +0.000 C 
ATOM     11  C7  UNL     1     -15.194  56.925  41.651  0.00  0.00    +0.000 C 
ENDBRANCH   9  10
ENDBRANCH   8   9
ENDBRANCH   7   8
ENDBRANCH   1   7
TORSDOF 6
ENDMDL
MODEL 9
REMARK VINA RESULT:      -3.0      2.759      4.203
REMARK  Name = .\Allicin.pdb
REMARK  7 active torsions:
REMARK  status: ('A' for Active; 'I' for Inactive)
REMARK    1  A    between atoms: C1_1  and  C2_2
REMARK    2  A    between atoms: C2_2  and  O1_10
REMARK    3  A    between atoms: C3_3  and  C4_4
REMARK    4  A    between atoms: C4_4  and  S1_5
REMARK    5  A    between atoms: S1_5  and  S2_6
REMARK    6  A    between atoms: S2_6  and  C5_7
REMARK    7  A    between atoms: C5_7  and  C6_8
REMARK                            x       y       z     vdW  Elec       q    Type
REMARK                         _______ _______ _______ _____ _____    ______ ____
ROOT
ATOM      1  C4  UNL     1     -12.852  59.698  39.791  0.00  0.00    +0.000 C 
ENDROOT
BRANCH   1   4
ATOM      2  C1  UNL     1     -13.114  57.175  36.871  0.00  0.00    +0.000 C 
ATOM      3  C2  UNL     1     -12.720  58.372  37.686  0.00  0.00    +0.000 C 
ATOM      4  C3  UNL     1     -13.215  58.530  38.920  0.00  0.00    +0.000 C 
BRANCH   3   5
ATOM      5  O1  UNL     1     -11.828  59.307  37.162  0.00  0.00    +0.000 OA
ATOM      6  H12 UNL     1     -11.163  59.059  36.439  0.00  0.00    +0.000 HD
ENDBRANCH   3   5
ENDBRANCH   1   4
BRANCH   1   7
ATOM      7  S1  UNL     1     -14.307  60.754  40.107  0.00  0.00    +0.000 S 
BRANCH   7   8
ATOM      8  S2  UNL     1     -14.054  61.921  38.332  0.00  0.00    +0.000 S 
BRANCH   8   9
ATOM      9  C5  UNL     1     -15.493  61.196  37.482  0.00  0.00    +0.000 C 
BRANCH   9  10
ATOM     10  C6  UNL     1     -15.130  60.836  36.070  0.00  0.00    +0.000 C 
ATOM     11  C7  UNL     1     -15.530  59.692  35.506  0.00  0.00    +0.000 C 
ENDBRANCH   9  10
ENDBRANCH   8   9
ENDBRANCH   7   8
ENDBRANCH   1   7
TORSDOF 6
ENDMDL
