MODEL 1
REMARK VINA RESULT:      -3.7      0.000      0.000
REMARK  Name = .\Allicin.pdb
REMARK  7 active torsions:
REMARK  status: ('A' for Active; 'I' for Inactive)
REMARK    1  A    between atoms: C1_1  and  C2_2
REMARK    2  A    between atoms: C2_2  and  O1_10
REMARK    3  A    between atoms: C3_3  and  C4_4
REMARK    4  A    between atoms: C4_4  and  S1_5
REMARK    5  A    between atoms: S1_5  and  S2_6
REMARK    6  A    between atoms: S2_6  and  C5_7
REMARK    7  A    between atoms: C5_7  and  C6_8
REMARK                            x       y       z     vdW  Elec       q    Type
REMARK                         _______ _______ _______ _____ _____    ______ ____
ROOT
ATOM      1  C4  UNL     1      -8.663  94.942 111.968  0.00  0.00    +0.000 C 
ENDROOT
BRANCH   1   4
ATOM      2  C1  UNL     1      -8.925  91.085 112.060  0.00  0.00    +0.000 C 
ATOM      3  C2  UNL     1      -8.628  92.479 111.594  0.00  0.00    +0.000 C 
ATOM      4  C3  UNL     1      -8.945  93.523 112.370  0.00  0.00    +0.000 C 
BRANCH   3   5
ATOM      5  O1  UNL     1      -8.008  92.684 110.361  0.00  0.00    +0.000 OA
ATOM      6  H12 UNL     1      -8.509  92.561 109.489  0.00  0.00    +0.000 HD
ENDBRANCH   3   5
ENDBRANCH   1   4
BRANCH   1   7
ATOM      7  S1  UNL     1      -9.879  96.085 112.708  0.00  0.00    +0.000 S 
BRANCH   7   8
ATOM      8  S2  UNL     1     -11.529  94.741 112.482  0.00  0.00    +0.000 S 
BRANCH   8   9
ATOM      9  C5  UNL     1     -12.624  95.989 111.732  0.00  0.00    +0.000 C 
BRANCH   9  10
ATOM     10  C6  UNL     1     -11.810  97.122 111.175  0.00  0.00    +0.000 C 
ATOM     11  C7  UNL     1     -12.125  97.719 110.022  0.00  0.00    +0.000 C 
ENDBRANCH   9  10
ENDBRANCH   8   9
ENDBRANCH   7   8
ENDBRANCH   1   7
TORSDOF 6
ENDMDL
MODEL 2
REMARK VINA RESULT:      -3.7      1.281      1.904
REMARK  Name = .\Allicin.pdb
REMARK  7 active torsions:
REMARK  status: ('A' for Active; 'I' for Inactive)
REMARK    1  A    between atoms: C1_1  and  C2_2
REMARK    2  A    between atoms: C2_2  and  O1_10
REMARK    3  A    between atoms: C3_3  and  C4_4
REMARK    4  A    between atoms: C4_4  and  S1_5
REMARK    5  A    between atoms: S1_5  and  S2_6
REMARK    6  A    between atoms: S2_6  and  C5_7
REMARK    7  A    between atoms: C5_7  and  C6_8
REMARK                            x       y       z     vdW  Elec       q    Type
REMARK                         _______ _______ _______ _____ _____    ______ ____
ROOT
ATOM      1  C4  UNL     1      -8.612  94.906 112.003  0.00  0.00    +0.000 C 
ENDROOT
BRANCH   1   4
ATOM      2  C1  UNL     1      -8.938  91.052 112.047  0.00  0.00    +0.000 C 
ATOM      3  C2  UNL     1      -8.615  92.447 111.600  0.00  0.00    +0.000 C 
ATOM      4  C3  UNL     1      -8.920  93.487 112.386  0.00  0.00    +0.000 C 
BRANCH   3   5
ATOM      5  O1  UNL     1      -7.983  92.656 110.374  0.00  0.00    +0.000 OA
ATOM      6  H12 UNL     1      -8.129  92.032 109.589  0.00  0.00    +0.000 HD
ENDBRANCH   3   5
ENDBRANCH   1   4
BRANCH   1   7
ATOM      7  S1  UNL     1      -9.884  96.047 112.647  0.00  0.00    +0.000 S 
BRANCH   7   8
ATOM      8  S2  UNL     1     -11.474  94.624 112.499  0.00  0.00    +0.000 S 
BRANCH   8   9
ATOM      9  C5  UNL     1     -12.793  95.872 112.653  0.00  0.00    +0.000 C 
BRANCH   9  10
ATOM     10  C6  UNL     1     -14.102  95.202 112.962  0.00  0.00    +0.000 C 
ATOM     11  C7  UNL     1     -14.579  94.203 112.213  0.00  0.00    +0.000 C 
ENDBRANCH   9  10
ENDBRANCH   8   9
ENDBRANCH   7   8
ENDBRANCH   1   7
TORSDOF 6
ENDMDL
MODEL 3
REMARK VINA RESULT:      -3.6      1.960      2.305
REMARK  Name = .\Allicin.pdb
REMARK  7 active torsions:
REMARK  status: ('A' for Active; 'I' for Inactive)
REMARK    1  A    between atoms: C1_1  and  C2_2
REMARK    2  A    between atoms: C2_2  and  O1_10
REMARK    3  A    between atoms: C3_3  and  C4_4
REMARK    4  A    between atoms: C4_4  and  S1_5
REMARK    5  A    between atoms: S1_5  and  S2_6
REMARK    6  A    between atoms: S2_6  and  C5_7
REMARK    7  A    between atoms: C5_7  and  C6_8
REMARK                            x       y       z     vdW  Elec       q    Type
REMARK                         _______ _______ _______ _____ _____    ______ ____
ROOT
ATOM      1  C4  UNL     1     -10.121  95.205 113.278  0.00  0.00    +0.000 C 
ENDROOT
BRANCH   1   4
ATOM      2  C1  UNL     1      -8.108  92.405 111.528  0.00  0.00    +0.000 C 
ATOM      3  C2  UNL     1      -8.886  93.163 112.563  0.00  0.00    +0.000 C 
ATOM      4  C3  UNL     1      -9.328  94.398 112.292  0.00  0.00    +0.000 C 
BRANCH   3   5
ATOM      5  O1  UNL     1      -9.161  92.574 113.797  0.00  0.00    +0.000 OA
ATOM      6  H12 UNL     1      -8.895  91.618 113.999  0.00  0.00    +0.000 HD
ENDBRANCH   3   5
ENDBRANCH   1   4
BRANCH   1   7
ATOM      7  S1  UNL     1     -11.868  95.332 112.764  0.00  0.00    +0.000 S 
BRANCH   7   8
ATOM      8  S2  UNL     1     -12.016  97.423 113.193  0.00  0.00    +0.000 S 
BRANCH   8   9
ATOM      9  C5  UNL     1     -11.562  97.945 111.507  0.00  0.00    +0.000 C 
BRANCH   9  10
ATOM     10  C6  UNL     1     -10.140  98.426 111.482  0.00  0.00    +0.000 C 
ATOM     11  C7  UNL     1      -9.217  97.862 110.698  0.00  0.00    +0.000 C 
ENDBRANCH   9  10
ENDBRANCH   8   9
ENDBRANCH   7   8
ENDBRANCH   1   7
TORSDOF 6
ENDMDL
MODEL 4
REMARK VINA RESULT:      -3.6      1.800      2.312
REMARK  Name = .\Allicin.pdb
REMARK  7 active torsions:
REMARK  status: ('A' for Active; 'I' for Inactive)
REMARK    1  A    between atoms: C1_1  and  C2_2
REMARK    2  A    between atoms: C2_2  and  O1_10
REMARK    3  A    between atoms: C3_3  and  C4_4
REMARK    4  A    between atoms: C4_4  and  S1_5
REMARK    5  A    between atoms: S1_5  and  S2_6
REMARK    6  A    between atoms: S2_6  and  C5_7
REMARK    7  A    between atoms: C5_7  and  C6_8
REMARK                            x       y       z     vdW  Elec       q    Type
REMARK                         _______ _______ _______ _____ _____    ______ ____
ROOT
ATOM      1  C4  UNL     1     -11.707  93.986 112.064  0.00  0.00    +0.000 C 
ENDROOT
BRANCH   1   4
ATOM      2  C1  UNL     1      -8.247  92.342 111.527  0.00  0.00    +0.000 C 
ATOM      3  C2  UNL     1      -9.722  92.515 111.742  0.00  0.00    +0.000 C 
ATOM      4  C3  UNL     1     -10.239  93.744 111.860  0.00  0.00    +0.000 C 
BRANCH   3   5
ATOM      5  O1  UNL     1     -10.552  91.395 111.802  0.00  0.00    +0.000 OA
ATOM      6  H12 UNL     1     -10.238  90.485 111.487  0.00  0.00    +0.000 HD
ENDBRANCH   3   5
ENDBRANCH   1   4
BRANCH   1   7
ATOM      7  S1  UNL     1     -12.006  95.651 112.749  0.00  0.00    +0.000 S 
BRANCH   7   8
ATOM      8  S2  UNL     1      -9.935  96.185 112.800  0.00  0.00    +0.000 S 
BRANCH   8   9
ATOM      9  C5  UNL     1     -10.224  97.915 112.305  0.00  0.00    +0.000 C 
BRANCH   9  10
ATOM     10  C6  UNL     1      -9.719  98.142 110.909  0.00  0.00    +0.000 C 
ATOM     11  C7  UNL     1     -10.547  98.241 109.865  0.00  0.00    +0.000 C 
ENDBRANCH   9  10
ENDBRANCH   8   9
ENDBRANCH   7   8
ENDBRANCH   1   7
TORSDOF 6
ENDMDL
MODEL 5
REMARK VINA RESULT:      -3.6      2.570      3.312
REMARK  Name = .\Allicin.pdb
REMARK  7 active torsions:
REMARK  status: ('A' for Active; 'I' for Inactive)
REMARK    1  A    between atoms: C1_1  and  C2_2
REMARK    2  A    between atoms: C2_2  and  O1_10
REMARK    3  A    between atoms: C3_3  and  C4_4
REMARK    4  A    between atoms: C4_4  and  S1_5
REMARK    5  A    between atoms: S1_5  and  S2_6
REMARK    6  A    between atoms: S2_6  and  C5_7
REMARK    7  A    between atoms: C5_7  and  C6_8
REMARK                            x       y       z     vdW  Elec       q    Type
REMARK                         _______ _______ _______ _____ _____    ______ ____
ROOT
ATOM      1  C4  UNL     1     -12.319  94.924 112.697  0.00  0.00    +0.000 C 
ENDROOT
BRANCH   1   4
ATOM      2  C1  UNL     1      -8.486  94.467 112.459  0.00  0.00    +0.000 C 
ATOM      3  C2  UNL     1      -9.833  94.990 112.860  0.00  0.00    +0.000 C 
ATOM      4  C3  UNL     1     -10.941  94.455 112.330  0.00  0.00    +0.000 C 
BRANCH   3   5
ATOM      5  O1  UNL     1      -9.930  96.021 113.794  0.00  0.00    +0.000 OA
ATOM      6  H12 UNL     1     -10.372  95.881 114.695  0.00  0.00    +0.000 HD
ENDBRANCH   3   5
ENDBRANCH   1   4
BRANCH   1   7
ATOM      7  S1  UNL     1     -13.217  95.527 111.226  0.00  0.00    +0.000 S 
BRANCH   7   8
ATOM      8  S2  UNL     1     -12.925  97.595 111.689  0.00  0.00    +0.000 S 
BRANCH   8   9
ATOM      9  C5  UNL     1     -11.628  97.838 110.433  0.00  0.00    +0.000 C 
BRANCH   9  10
ATOM     10  C6  UNL     1     -10.352  98.279 111.090  0.00  0.00    +0.000 C 
ATOM     11  C7  UNL     1      -9.156  97.865 110.660  0.00  0.00    +0.000 C 
ENDBRANCH   9  10
ENDBRANCH   8   9
ENDBRANCH   7   8
ENDBRANCH   1   7
TORSDOF 6
ENDMDL
MODEL 6
REMARK VINA RESULT:      -3.4      1.788      2.001
REMARK  Name = .\Allicin.pdb
REMARK  7 active torsions:
REMARK  status: ('A' for Active; 'I' for Inactive)
REMARK    1  A    between atoms: C1_1  and  C2_2
REMARK    2  A    between atoms: C2_2  and  O1_10
REMARK    3  A    between atoms: C3_3  and  C4_4
REMARK    4  A    between atoms: C4_4  and  S1_5
REMARK    5  A    between atoms: S1_5  and  S2_6
REMARK    6  A    between atoms: S2_6  and  C5_7
REMARK    7  A    between atoms: C5_7  and  C6_8
REMARK                            x       y       z     vdW  Elec       q    Type
REMARK                         _______ _______ _______ _____ _____    ______ ____
ROOT
ATOM      1  C4  UNL     1     -11.427  94.561 112.613  0.00  0.00    +0.000 C 
ENDROOT
BRANCH   1   4
ATOM      2  C1  UNL     1      -8.472  92.336 111.484  0.00  0.00    +0.000 C 
ATOM      3  C2  UNL     1      -9.862  92.796 111.811  0.00  0.00    +0.000 C 
ATOM      4  C3  UNL     1     -10.061  94.035 112.278  0.00  0.00    +0.000 C 
BRANCH   3   5
ATOM      5  O1  UNL     1     -10.943  91.938 111.613  0.00  0.00    +0.000 OA
ATOM      6  H12 UNL     1     -11.760  92.227 111.087  0.00  0.00    +0.000 HD
ENDBRANCH   3   5
ENDBRANCH   1   4
BRANCH   1   7
ATOM      7  S1  UNL     1     -11.360  96.338 113.025  0.00  0.00    +0.000 S 
BRANCH   7   8
ATOM      8  S2  UNL     1     -13.304  96.763 112.240  0.00  0.00    +0.000 S 
BRANCH   8   9
ATOM      9  C5  UNL     1     -12.705  97.093 110.552  0.00  0.00    +0.000 C 
BRANCH   9  10
ATOM     10  C6  UNL     1     -11.534  98.032 110.595  0.00  0.00    +0.000 C 
ATOM     11  C7  UNL     1     -10.880  98.398 109.488  0.00  0.00    +0.000 C 
ENDBRANCH   9  10
ENDBRANCH   8   9
ENDBRANCH   7   8
ENDBRANCH   1   7
TORSDOF 6
ENDMDL
MODEL 7
REMARK VINA RESULT:      -3.4      2.354      4.873
REMARK  Name = .\Allicin.pdb
REMARK  7 active torsions:
REMARK  status: ('A' for Active; 'I' for Inactive)
REMARK    1  A    between atoms: C1_1  and  C2_2
REMARK    2  A    between atoms: C2_2  and  O1_10
REMARK    3  A    between atoms: C3_3  and  C4_4
REMARK    4  A    between atoms: C4_4  and  S1_5
REMARK    5  A    between atoms: S1_5  and  S2_6
REMARK    6  A    between atoms: S2_6  and  C5_7
REMARK    7  A    between atoms: C5_7  and  C6_8
REMARK                            x       y       z     vdW  Elec       q    Type
REMARK                         _______ _______ _______ _____ _____    ______ ____
ROOT
ATOM      1  C4  UNL     1     -11.264  95.114 113.089  0.00  0.00    +0.000 C 
ENDROOT
BRANCH   1   4
ATOM      2  C1  UNL     1     -14.771  94.358 111.645  0.00  0.00    +0.000 C 
ATOM      3  C2  UNL     1     -13.339  94.196 112.060  0.00  0.00    +0.000 C 
ATOM      4  C3  UNL     1     -12.693  95.215 112.640  0.00  0.00    +0.000 C 
BRANCH   3   5
ATOM      5  O1  UNL     1     -12.689  92.979 111.854  0.00  0.00    +0.000 OA
ATOM      6  H12 UNL     1     -13.040  92.294 111.194  0.00  0.00    +0.000 HD
ENDBRANCH   3   5
ENDBRANCH   1   4
BRANCH   1   7
ATOM      7  S1  UNL     1     -10.213  96.312 112.199  0.00  0.00    +0.000 S 
BRANCH   7   8
ATOM      8  S2  UNL     1      -8.557  94.972 112.009  0.00  0.00    +0.000 S 
BRANCH   8   9
ATOM      9  C5  UNL     1      -9.379  93.606 112.891  0.00  0.00    +0.000 C 
BRANCH   9  10
ATOM     10  C6  UNL     1      -8.574  92.346 112.754  0.00  0.00    +0.000 C 
ATOM     11  C7  UNL     1      -9.010  91.303 112.041  0.00  0.00    +0.000 C 
ENDBRANCH   9  10
ENDBRANCH   8   9
ENDBRANCH   7   8
ENDBRANCH   1   7
TORSDOF 6
ENDMDL
MODEL 8
REMARK VINA RESULT:      -3.4      2.771      3.935
REMARK  Name = .\Allicin.pdb
REMARK  7 active torsions:
REMARK  status: ('A' for Active; 'I' for Inactive)
REMARK    1  A    between atoms: C1_1  and  C2_2
REMARK    2  A    between atoms: C2_2  and  O1_10
REMARK    3  A    between atoms: C3_3  and  C4_4
REMARK    4  A    between atoms: C4_4  and  S1_5
REMARK    5  A    between atoms: S1_5  and  S2_6
REMARK    6  A    between atoms: S2_6  and  C5_7
REMARK    7  A    between atoms: C5_7  and  C6_8
REMARK                            x       y       z     vdW  Elec       q    Type
REMARK                         _______ _______ _______ _____ _____    ______ ____
ROOT
ATOM      1  C4  UNL     1      -9.003  95.681 111.931  0.00  0.00    +0.000 C 
ENDROOT
BRANCH   1   4
ATOM      2  C1  UNL     1     -10.011  99.121 110.480  0.00  0.00    +0.000 C 
ATOM      3  C2  UNL     1      -9.232  97.872 110.767  0.00  0.00    +0.000 C 
ATOM      4  C3  UNL     1      -9.726  96.957 111.611  0.00  0.00    +0.000 C 
BRANCH   3   5
ATOM      5  O1  UNL     1      -8.004  97.658 110.142  0.00  0.00    +0.000 OA
ATOM      6  H12 UNL     1      -7.713  96.734 109.845  0.00  0.00    +0.000 HD
ENDBRANCH   3   5
ENDBRANCH   1   4
BRANCH   1   7
ATOM      7  S1  UNL     1      -9.946  94.680 113.132  0.00  0.00    +0.000 S 
BRANCH   7   8
ATOM      8  S2  UNL     1     -11.764  95.776 112.871  0.00  0.00    +0.000 S 
BRANCH   8   9
ATOM      9  C5  UNL     1     -12.536  94.516 111.804  0.00  0.00    +0.000 C 
BRANCH   9  10
ATOM     10  C6  UNL     1     -13.715  95.104 111.084  0.00  0.00    +0.000 C 
ATOM     11  C7  UNL     1     -13.595  96.158 110.272  0.00  0.00    +0.000 C 
ENDBRANCH   9  10
ENDBRANCH   8   9
ENDBRANCH   7   8
ENDBRANCH   1   7
TORSDOF 6
ENDMDL
MODEL 9
REMARK VINA RESULT:      -3.4      1.991      2.438
REMARK  Name = .\Allicin.pdb
REMARK  7 active torsions:
REMARK  status: ('A' for Active; 'I' for Inactive)
REMARK    1  A    between atoms: C1_1  and  C2_2
REMARK    2  A    between atoms: C2_2  and  O1_10
REMARK    3  A    between atoms: C3_3  and  C4_4
REMARK    4  A    between atoms: C4_4  and  S1_5
REMARK    5  A    between atoms: S1_5  and  S2_6
REMARK    6  A    between atoms: S2_6  and  C5_7
REMARK    7  A    between atoms: C5_7  and  C6_8
REMARK                            x       y       z     vdW  Elec       q    Type
REMARK                         _______ _______ _______ _____ _____    ______ ____
ROOT
ATOM      1  C4  UNL     1     -10.832  94.831 113.012  0.00  0.00    +0.000 C 
ENDROOT
BRANCH   1   4
ATOM      2  C1  UNL     1      -8.136  92.682 111.260  0.00  0.00    +0.000 C 
ATOM      3  C2  UNL     1      -8.794  93.793 112.023  0.00  0.00    +0.000 C 
ATOM      4  C3  UNL     1     -10.114  93.758 112.246  0.00  0.00    +0.000 C 
BRANCH   3   5
ATOM      5  O1  UNL     1      -8.028  94.851 112.511  0.00  0.00    +0.000 OA
ATOM      6  H12 UNL     1      -7.050  94.733 112.749  0.00  0.00    +0.000 HD
ENDBRANCH   3   5
ENDBRANCH   1   4
BRANCH   1   7
ATOM      7  S1  UNL     1     -12.531  95.057 112.385  0.00  0.00    +0.000 S 
BRANCH   7   8
ATOM      8  S2  UNL     1     -12.465  97.192 112.487  0.00  0.00    +0.000 S 
BRANCH   8   9
ATOM      9  C5  UNL     1     -11.091  97.347 111.300  0.00  0.00    +0.000 C 
BRANCH   9  10
ATOM     10  C6  UNL     1     -10.019  98.234 111.866  0.00  0.00    +0.000 C 
ATOM     11  C7  UNL     1     -10.303  99.257 112.677  0.00  0.00    +0.000 C 
ENDBRANCH   9  10
ENDBRANCH   8   9
ENDBRANCH   7   8
ENDBRANCH   1   7
TORSDOF 6
ENDMDL
