MODEL 1
REMARK VINA RESULT:      -3.1      0.000      0.000
REMARK  Name = .\Allicin.pdb
REMARK  7 active torsions:
REMARK  status: ('A' for Active; 'I' for Inactive)
REMARK    1  A    between atoms: C1_1  and  C2_2
REMARK    2  A    between atoms: C2_2  and  O1_10
REMARK    3  A    between atoms: C3_3  and  C4_4
REMARK    4  A    between atoms: C4_4  and  S1_5
REMARK    5  A    between atoms: S1_5  and  S2_6
REMARK    6  A    between atoms: S2_6  and  C5_7
REMARK    7  A    between atoms: C5_7  and  C6_8
REMARK                            x       y       z     vdW  Elec       q    Type
REMARK                         _______ _______ _______ _____ _____    ______ ____
ROOT
ATOM      1  C4  UNL     1      10.403  59.745  -1.423  0.00  0.00    +0.000 C 
ENDROOT
BRANCH   1   4
ATOM      2  C1  UNL     1      10.436  57.085   1.384  0.00  0.00    +0.000 C 
ATOM      3  C2  UNL     1      10.383  58.408   0.679  0.00  0.00    +0.000 C 
ATOM      4  C3  UNL     1      10.462  58.455  -0.657  0.00  0.00    +0.000 C 
BRANCH   3   5
ATOM      5  O1  UNL     1      10.237  59.583   1.415  0.00  0.00    +0.000 OA
ATOM      6  H12 UNL     1       9.736  60.382   1.046  0.00  0.00    +0.000 HD
ENDBRANCH   3   5
ENDBRANCH   1   4
BRANCH   1   7
ATOM      7  S1  UNL     1      10.687  59.461  -3.204  0.00  0.00    +0.000 S 
BRANCH   7   8
ATOM      8  S2  UNL     1      10.657  57.328  -3.039  0.00  0.00    +0.000 S 
BRANCH   8   9
ATOM      9  C5  UNL     1       9.094  57.138  -3.955  0.00  0.00    +0.000 C 
BRANCH   9  10
ATOM     10  C6  UNL     1       7.974  56.826  -3.003  0.00  0.00    +0.000 C 
ATOM     11  C7  UNL     1       8.107  55.922  -2.028  0.00  0.00    +0.000 C 
ENDBRANCH   9  10
ENDBRANCH   8   9
ENDBRANCH   7   8
ENDBRANCH   1   7
TORSDOF 6
ENDMDL
MODEL 2
REMARK VINA RESULT:      -3.0      1.625      1.919
REMARK  Name = .\Allicin.pdb
REMARK  7 active torsions:
REMARK  status: ('A' for Active; 'I' for Inactive)
REMARK    1  A    between atoms: C1_1  and  C2_2
REMARK    2  A    between atoms: C2_2  and  O1_10
REMARK    3  A    between atoms: C3_3  and  C4_4
REMARK    4  A    between atoms: C4_4  and  S1_5
REMARK    5  A    between atoms: S1_5  and  S2_6
REMARK    6  A    between atoms: S2_6  and  C5_7
REMARK    7  A    between atoms: C5_7  and  C6_8
REMARK                            x       y       z     vdW  Elec       q    Type
REMARK                         _______ _______ _______ _____ _____    ______ ____
ROOT
ATOM      1  C4  UNL     1      10.851  58.646  -1.150  0.00  0.00    +0.000 C 
ENDROOT
BRANCH   1   4
ATOM      2  C1  UNL     1      12.462  60.538   1.814  0.00  0.00    +0.000 C 
ATOM      3  C2  UNL     1      11.460  59.810   0.967  0.00  0.00    +0.000 C 
ATOM      4  C3  UNL     1      11.802  59.390  -0.257  0.00  0.00    +0.000 C 
BRANCH   3   5
ATOM      5  O1  UNL     1      10.181  59.560   1.463  0.00  0.00    +0.000 OA
ATOM      6  H12 UNL     1       9.825  58.617   1.561  0.00  0.00    +0.000 HD
ENDBRANCH   3   5
ENDBRANCH   1   4
BRANCH   1   7
ATOM      7  S1  UNL     1      10.081  59.770  -2.364  0.00  0.00    +0.000 S 
BRANCH   7   8
ATOM      8  S2  UNL     1       8.740  58.291  -3.133  0.00  0.00    +0.000 S 
BRANCH   8   9
ATOM      9  C5  UNL     1       9.349  56.967  -2.038  0.00  0.00    +0.000 C 
BRANCH   9  10
ATOM     10  C6  UNL     1       8.291  55.916  -1.863  0.00  0.00    +0.000 C 
ATOM     11  C7  UNL     1       7.700  55.328  -2.907  0.00  0.00    +0.000 C 
ENDBRANCH   9  10
ENDBRANCH   8   9
ENDBRANCH   7   8
ENDBRANCH   1   7
TORSDOF 6
ENDMDL
MODEL 3
REMARK VINA RESULT:      -2.8      1.543      2.048
REMARK  Name = .\Allicin.pdb
REMARK  7 active torsions:
REMARK  status: ('A' for Active; 'I' for Inactive)
REMARK    1  A    between atoms: C1_1  and  C2_2
REMARK    2  A    between atoms: C2_2  and  O1_10
REMARK    3  A    between atoms: C3_3  and  C4_4
REMARK    4  A    between atoms: C4_4  and  S1_5
REMARK    5  A    between atoms: S1_5  and  S2_6
REMARK    6  A    between atoms: S2_6  and  C5_7
REMARK    7  A    between atoms: C5_7  and  C6_8
REMARK                            x       y       z     vdW  Elec       q    Type
REMARK                         _______ _______ _______ _____ _____    ______ ____
ROOT
ATOM      1  C4  UNL     1      10.225  58.410   0.006  0.00  0.00    +0.000 C 
ENDROOT
BRANCH   1   4
ATOM      2  C1  UNL     1      10.405  55.076   1.956  0.00  0.00    +0.000 C 
ATOM      3  C2  UNL     1      10.257  56.536   1.647  0.00  0.00    +0.000 C 
ATOM      4  C3  UNL     1      10.374  56.965   0.384  0.00  0.00    +0.000 C 
BRANCH   3   5
ATOM      5  O1  UNL     1       9.983  57.440   2.673  0.00  0.00    +0.000 OA
ATOM      6  H12 UNL     1      10.466  58.329   2.741  0.00  0.00    +0.000 HD
ENDBRANCH   3   5
ENDBRANCH   1   4
BRANCH   1   7
ATOM      7  S1  UNL     1      11.505  58.907  -1.197  0.00  0.00    +0.000 S 
BRANCH   7   8
ATOM      8  S2  UNL     1      10.166  60.065  -2.397  0.00  0.00    +0.000 S 
BRANCH   8   9
ATOM      9  C5  UNL     1       9.746  58.686  -3.511  0.00  0.00    +0.000 C 
BRANCH   9  10
ATOM     10  C6  UNL     1       8.386  58.146  -3.172  0.00  0.00    +0.000 C 
ATOM     11  C7  UNL     1       8.190  56.856  -2.881  0.00  0.00    +0.000 C 
ENDBRANCH   9  10
ENDBRANCH   8   9
ENDBRANCH   7   8
ENDBRANCH   1   7
TORSDOF 6
ENDMDL
MODEL 4
REMARK VINA RESULT:      -2.8      2.132      2.903
REMARK  Name = .\Allicin.pdb
REMARK  7 active torsions:
REMARK  status: ('A' for Active; 'I' for Inactive)
REMARK    1  A    between atoms: C1_1  and  C2_2
REMARK    2  A    between atoms: C2_2  and  O1_10
REMARK    3  A    between atoms: C3_3  and  C4_4
REMARK    4  A    between atoms: C4_4  and  S1_5
REMARK    5  A    between atoms: S1_5  and  S2_6
REMARK    6  A    between atoms: S2_6  and  C5_7
REMARK    7  A    between atoms: C5_7  and  C6_8
REMARK                            x       y       z     vdW  Elec       q    Type
REMARK                         _______ _______ _______ _____ _____    ______ ____
ROOT
ATOM      1  C4  UNL     1      11.799  57.440   0.145  0.00  0.00    +0.000 C 
ENDROOT
BRANCH   1   4
ATOM      2  C1  UNL     1       9.977  60.137  -1.944  0.00  0.00    +0.000 C 
ATOM      3  C2  UNL     1      10.402  59.280  -0.789  0.00  0.00    +0.000 C 
ATOM      4  C3  UNL     1      11.321  58.323  -0.971  0.00  0.00    +0.000 C 
BRANCH   3   5
ATOM      5  O1  UNL     1       9.851  59.492   0.475  0.00  0.00    +0.000 OA
ATOM      6  H12 UNL     1      10.373  59.296   1.321  0.00  0.00    +0.000 HD
ENDBRANCH   3   5
ENDBRANCH   1   4
BRANCH   1   7
ATOM      7  S1  UNL     1      11.808  55.688  -0.366  0.00  0.00    +0.000 S 
BRANCH   7   8
ATOM      8  S2  UNL     1       9.714  55.406  -0.031  0.00  0.00    +0.000 S 
BRANCH   8   9
ATOM      9  C5  UNL     1       9.312  55.228  -1.799  0.00  0.00    +0.000 C 
BRANCH   9  10
ATOM     10  C6  UNL     1       8.077  56.016  -2.129  0.00  0.00    +0.000 C 
ATOM     11  C7  UNL     1       8.088  57.006  -3.027  0.00  0.00    +0.000 C 
ENDBRANCH   9  10
ENDBRANCH   8   9
ENDBRANCH   7   8
ENDBRANCH   1   7
TORSDOF 6
ENDMDL
MODEL 5
REMARK VINA RESULT:      -2.7      1.504      1.916
REMARK  Name = .\Allicin.pdb
REMARK  7 active torsions:
REMARK  status: ('A' for Active; 'I' for Inactive)
REMARK    1  A    between atoms: C1_1  and  C2_2
REMARK    2  A    between atoms: C2_2  and  O1_10
REMARK    3  A    between atoms: C3_3  and  C4_4
REMARK    4  A    between atoms: C4_4  and  S1_5
REMARK    5  A    between atoms: S1_5  and  S2_6
REMARK    6  A    between atoms: S2_6  and  C5_7
REMARK    7  A    between atoms: C5_7  and  C6_8
REMARK                            x       y       z     vdW  Elec       q    Type
REMARK                         _______ _______ _______ _____ _____    ______ ____
ROOT
ATOM      1  C4  UNL     1      10.164  58.982  -1.240  0.00  0.00    +0.000 C 
ENDROOT
BRANCH   1   4
ATOM      2  C1  UNL     1      12.485  60.308   1.555  0.00  0.00    +0.000 C 
ATOM      3  C2  UNL     1      11.286  59.748   0.848  0.00  0.00    +0.000 C 
ATOM      4  C3  UNL     1      11.325  59.550  -0.476  0.00  0.00    +0.000 C 
BRANCH   3   5
ATOM      5  O1  UNL     1      10.142  59.420   1.574  0.00  0.00    +0.000 OA
ATOM      6  H12 UNL     1       9.214  59.632   1.226  0.00  0.00    +0.000 HD
ENDBRANCH   3   5
ENDBRANCH   1   4
BRANCH   1   7
ATOM      7  S1  UNL     1      10.186  57.157  -1.200  0.00  0.00    +0.000 S 
BRANCH   7   8
ATOM      8  S2  UNL     1       9.986  56.941  -3.318  0.00  0.00    +0.000 S 
BRANCH   8   9
ATOM      9  C5  UNL     1       8.164  56.927  -3.287  0.00  0.00    +0.000 C 
BRANCH   9  10
ATOM     10  C6  UNL     1       7.670  55.648  -2.674  0.00  0.00    +0.000 C 
ATOM     11  C7  UNL     1       7.965  54.454  -3.196  0.00  0.00    +0.000 C 
ENDBRANCH   9  10
ENDBRANCH   8   9
ENDBRANCH   7   8
ENDBRANCH   1   7
TORSDOF 6
ENDMDL
MODEL 6
REMARK VINA RESULT:      -2.6      2.332      3.237
REMARK  Name = .\Allicin.pdb
REMARK  7 active torsions:
REMARK  status: ('A' for Active; 'I' for Inactive)
REMARK    1  A    between atoms: C1_1  and  C2_2
REMARK    2  A    between atoms: C2_2  and  O1_10
REMARK    3  A    between atoms: C3_3  and  C4_4
REMARK    4  A    between atoms: C4_4  and  S1_5
REMARK    5  A    between atoms: S1_5  and  S2_6
REMARK    6  A    between atoms: S2_6  and  C5_7
REMARK    7  A    between atoms: C5_7  and  C6_8
REMARK                            x       y       z     vdW  Elec       q    Type
REMARK                         _______ _______ _______ _____ _____    ______ ____
ROOT
ATOM      1  C4  UNL     1      12.528  58.563   1.029  0.00  0.00    +0.000 C 
ENDROOT
BRANCH   1   4
ATOM      2  C1  UNL     1      10.150  59.826  -1.748  0.00  0.00    +0.000 C 
ATOM      3  C2  UNL     1      10.679  59.424  -0.403  0.00  0.00    +0.000 C 
ATOM      4  C3  UNL     1      11.934  58.970  -0.289  0.00  0.00    +0.000 C 
BRANCH   3   5
ATOM      5  O1  UNL     1       9.869  59.540   0.726  0.00  0.00    +0.000 OA
ATOM      6  H12 UNL     1       9.499  60.435   1.024  0.00  0.00    +0.000 HD
ENDBRANCH   3   5
ENDBRANCH   1   4
BRANCH   1   7
ATOM      7  S1  UNL     1      12.219  56.797   1.368  0.00  0.00    +0.000 S 
BRANCH   7   8
ATOM      8  S2  UNL     1      12.264  56.221  -0.692  0.00  0.00    +0.000 S 
BRANCH   8   9
ATOM      9  C5  UNL     1      10.862  55.067  -0.547  0.00  0.00    +0.000 C 
BRANCH   9  10
ATOM     10  C6  UNL     1       9.577  55.831  -0.410  0.00  0.00    +0.000 C 
ATOM     11  C7  UNL     1       8.878  56.235  -1.476  0.00  0.00    +0.000 C 
ENDBRANCH   9  10
ENDBRANCH   8   9
ENDBRANCH   7   8
ENDBRANCH   1   7
TORSDOF 6
ENDMDL
MODEL 7
REMARK VINA RESULT:      -2.5      2.926      4.053
REMARK  Name = .\Allicin.pdb
REMARK  7 active torsions:
REMARK  status: ('A' for Active; 'I' for Inactive)
REMARK    1  A    between atoms: C1_1  and  C2_2
REMARK    2  A    between atoms: C2_2  and  O1_10
REMARK    3  A    between atoms: C3_3  and  C4_4
REMARK    4  A    between atoms: C4_4  and  S1_5
REMARK    5  A    between atoms: S1_5  and  S2_6
REMARK    6  A    between atoms: S2_6  and  C5_7
REMARK    7  A    between atoms: C5_7  and  C6_8
REMARK                            x       y       z     vdW  Elec       q    Type
REMARK                         _______ _______ _______ _____ _____    ______ ____
ROOT
ATOM      1  C4  UNL     1      10.502  59.455  -0.096  0.00  0.00    +0.000 C 
ENDROOT
BRANCH   1   4
ATOM      2  C1  UNL     1      10.903  59.413  -3.942  0.00  0.00    +0.000 C 
ATOM      3  C2  UNL     1      10.281  59.435  -2.577  0.00  0.00    +0.000 C 
ATOM      4  C3  UNL     1      11.061  59.423  -1.489  0.00  0.00    +0.000 C 
BRANCH   3   5
ATOM      5  O1  UNL     1       8.893  59.482  -2.446  0.00  0.00    +0.000 OA
ATOM      6  H12 UNL     1       8.359  58.672  -2.154  0.00  0.00    +0.000 HD
ENDBRANCH   3   5
ENDBRANCH   1   4
BRANCH   1   7
ATOM      7  S1  UNL     1      11.831  59.671   1.137  0.00  0.00    +0.000 S 
BRANCH   7   8
ATOM      8  S2  UNL     1      12.153  57.573   1.404  0.00  0.00    +0.000 S 
BRANCH   8   9
ATOM      9  C5  UNL     1      10.378  57.170   1.501  0.00  0.00    +0.000 C 
BRANCH   9  10
ATOM     10  C6  UNL     1      10.104  55.878   0.787  0.00  0.00    +0.000 C 
ATOM     11  C7  UNL     1       9.475  55.840  -0.391  0.00  0.00    +0.000 C 
ENDBRANCH   9  10
ENDBRANCH   8   9
ENDBRANCH   7   8
ENDBRANCH   1   7
TORSDOF 6
ENDMDL
MODEL 8
REMARK VINA RESULT:      -2.5      2.265      4.013
REMARK  Name = .\Allicin.pdb
REMARK  7 active torsions:
REMARK  status: ('A' for Active; 'I' for Inactive)
REMARK    1  A    between atoms: C1_1  and  C2_2
REMARK    2  A    between atoms: C2_2  and  O1_10
REMARK    3  A    between atoms: C3_3  and  C4_4
REMARK    4  A    between atoms: C4_4  and  S1_5
REMARK    5  A    between atoms: S1_5  and  S2_6
REMARK    6  A    between atoms: S2_6  and  C5_7
REMARK    7  A    between atoms: C5_7  and  C6_8
REMARK                            x       y       z     vdW  Elec       q    Type
REMARK                         _______ _______ _______ _____ _____    ______ ____
ROOT
ATOM      1  C4  UNL     1       9.831  58.858  -3.393  0.00  0.00    +0.000 C 
ENDROOT
BRANCH   1   4
ATOM      2  C1  UNL     1       7.750  55.716  -2.523  0.00  0.00    +0.000 C 
ATOM      3  C2  UNL     1       8.909  56.603  -2.871  0.00  0.00    +0.000 C 
ATOM      4  C3  UNL     1       8.713  57.915  -3.056  0.00  0.00    +0.000 C 
BRANCH   3   5
ATOM      5  O1  UNL     1      10.190  56.063  -2.984  0.00  0.00    +0.000 OA
ATOM      6  H12 UNL     1      10.630  55.575  -2.213  0.00  0.00    +0.000 HD
ENDBRANCH   3   5
ENDBRANCH   1   4
BRANCH   1   7
ATOM      7  S1  UNL     1      10.074  60.085  -2.064  0.00  0.00    +0.000 S 
BRANCH   7   8
ATOM      8  S2  UNL     1      11.440  58.864  -0.959  0.00  0.00    +0.000 S 
BRANCH   8   9
ATOM      9  C5  UNL     1      10.522  59.009   0.608  0.00  0.00    +0.000 C 
BRANCH   9  10
ATOM     10  C6  UNL     1      10.432  57.668   1.278  0.00  0.00    +0.000 C 
ATOM     11  C7  UNL     1      10.298  56.536   0.580  0.00  0.00    +0.000 C 
ENDBRANCH   9  10
ENDBRANCH   8   9
ENDBRANCH   7   8
ENDBRANCH   1   7
TORSDOF 6
ENDMDL
MODEL 9
REMARK VINA RESULT:      -2.3      2.590      4.736
REMARK  Name = .\Allicin.pdb
REMARK  7 active torsions:
REMARK  status: ('A' for Active; 'I' for Inactive)
REMARK    1  A    between atoms: C1_1  and  C2_2
REMARK    2  A    between atoms: C2_2  and  O1_10
REMARK    3  A    between atoms: C3_3  and  C4_4
REMARK    4  A    between atoms: C4_4  and  S1_5
REMARK    5  A    between atoms: S1_5  and  S2_6
REMARK    6  A    between atoms: S2_6  and  C5_7
REMARK    7  A    between atoms: C5_7  and  C6_8
REMARK                            x       y       z     vdW  Elec       q    Type
REMARK                         _______ _______ _______ _____ _____    ______ ____
ROOT
ATOM      1  C4  UNL     1       9.113  57.182  -2.152  0.00  0.00    +0.000 C 
ENDROOT
BRANCH   1   4
ATOM      2  C1  UNL     1       7.157  54.133  -3.507  0.00  0.00    +0.000 C 
ATOM      3  C2  UNL     1       8.288  55.042  -3.126  0.00  0.00    +0.000 C 
ATOM      4  C3  UNL     1       8.028  56.231  -2.567  0.00  0.00    +0.000 C 
BRANCH   3   5
ATOM      5  O1  UNL     1       9.606  54.641  -3.341  0.00  0.00    +0.000 OA
ATOM      6  H12 UNL     1       9.827  53.797  -3.856  0.00  0.00    +0.000 HD
ENDBRANCH   3   5
ENDBRANCH   1   4
BRANCH   1   7
ATOM      7  S1  UNL     1       9.547  58.314  -3.517  0.00  0.00    +0.000 S 
BRANCH   7   8
ATOM      8  S2  UNL     1       9.979  59.967  -2.230  0.00  0.00    +0.000 S 
BRANCH   8   9
ATOM      9  C5  UNL     1      11.440  59.180  -1.477  0.00  0.00    +0.000 C 
BRANCH   9  10
ATOM     10  C6  UNL     1      11.513  59.522  -0.016  0.00  0.00    +0.000 C 
ATOM     11  C7  UNL     1      10.571  59.134   0.849  0.00  0.00    +0.000 C 
ENDBRANCH   9  10
ENDBRANCH   8   9
ENDBRANCH   7   8
ENDBRANCH   1   7
TORSDOF 6
ENDMDL
