MODEL 1
REMARK VINA RESULT:      -3.2      0.000      0.000
REMARK  Name = .\Allicin.pdb
REMARK  7 active torsions:
REMARK  status: ('A' for Active; 'I' for Inactive)
REMARK    1  A    between atoms: C1_1  and  C2_2
REMARK    2  A    between atoms: C2_2  and  O1_10
REMARK    3  A    between atoms: C3_3  and  C4_4
REMARK    4  A    between atoms: C4_4  and  S1_5
REMARK    5  A    between atoms: S1_5  and  S2_6
REMARK    6  A    between atoms: S2_6  and  C5_7
REMARK    7  A    between atoms: C5_7  and  C6_8
REMARK                            x       y       z     vdW  Elec       q    Type
REMARK                         _______ _______ _______ _____ _____    ______ ____
ROOT
ATOM      1  C4  UNL     1     -18.624  58.995   4.464  0.00  0.00    +0.000 C 
ENDROOT
BRANCH   1   4
ATOM      2  C1  UNL     1     -16.336  56.042   3.463  0.00  0.00    +0.000 C 
ATOM      3  C2  UNL     1     -17.301  56.897   4.231  0.00  0.00    +0.000 C 
ATOM      4  C3  UNL     1     -17.656  58.096   3.752  0.00  0.00    +0.000 C 
BRANCH   3   5
ATOM      5  O1  UNL     1     -17.837  56.435   5.432  0.00  0.00    +0.000 OA
ATOM      6  H12 UNL     1     -17.670  55.490   5.759  0.00  0.00    +0.000 HD
ENDBRANCH   3   5
ENDBRANCH   1   4
BRANCH   1   7
ATOM      7  S1  UNL     1     -17.759  60.082   5.648  0.00  0.00    +0.000 S 
BRANCH   7   8
ATOM      8  S2  UNL     1     -18.615  61.884   4.876  0.00  0.00    +0.000 S 
BRANCH   8   9
ATOM      9  C5  UNL     1     -17.728  61.791   3.287  0.00  0.00    +0.000 C 
BRANCH   9  10
ATOM     10  C6  UNL     1     -17.578  63.166   2.700  0.00  0.00    +0.000 C 
ATOM     11  C7  UNL     1     -17.368  63.358   1.394  0.00  0.00    +0.000 C 
ENDBRANCH   9  10
ENDBRANCH   8   9
ENDBRANCH   7   8
ENDBRANCH   1   7
TORSDOF 6
ENDMDL
MODEL 2
REMARK VINA RESULT:      -3.2      2.512      5.685
REMARK  Name = .\Allicin.pdb
REMARK  7 active torsions:
REMARK  status: ('A' for Active; 'I' for Inactive)
REMARK    1  A    between atoms: C1_1  and  C2_2
REMARK    2  A    between atoms: C2_2  and  O1_10
REMARK    3  A    between atoms: C3_3  and  C4_4
REMARK    4  A    between atoms: C4_4  and  S1_5
REMARK    5  A    between atoms: S1_5  and  S2_6
REMARK    6  A    between atoms: S2_6  and  C5_7
REMARK    7  A    between atoms: C5_7  and  C6_8
REMARK                            x       y       z     vdW  Elec       q    Type
REMARK                         _______ _______ _______ _____ _____    ______ ____
ROOT
ATOM      1  C4  UNL     1     -17.669  61.124   3.704  0.00  0.00    +0.000 C 
ENDROOT
BRANCH   1   4
ATOM      2  C1  UNL     1     -17.975  64.711   2.290  0.00  0.00    +0.000 C 
ATOM      3  C2  UNL     1     -17.680  63.244   2.394  0.00  0.00    +0.000 C 
ATOM      4  C3  UNL     1     -17.930  62.593   3.538  0.00  0.00    +0.000 C 
BRANCH   3   5
ATOM      5  O1  UNL     1     -17.161  62.558   1.296  0.00  0.00    +0.000 OA
ATOM      6  H12 UNL     1     -17.636  61.757   0.897  0.00  0.00    +0.000 HD
ENDBRANCH   3   5
ENDBRANCH   1   4
BRANCH   1   7
ATOM      7  S1  UNL     1     -17.789  60.633   5.458  0.00  0.00    +0.000 S 
BRANCH   7   8
ATOM      8  S2  UNL     1     -18.980  58.900   5.064  0.00  0.00    +0.000 S 
BRANCH   8   9
ATOM      9  C5  UNL     1     -17.863  58.251   3.779  0.00  0.00    +0.000 C 
BRANCH   9  10
ATOM     10  C6  UNL     1     -17.024  57.139   4.339  0.00  0.00    +0.000 C 
ATOM     11  C7  UNL     1     -16.542  56.159   3.568  0.00  0.00    +0.000 C 
ENDBRANCH   9  10
ENDBRANCH   8   9
ENDBRANCH   7   8
ENDBRANCH   1   7
TORSDOF 6
ENDMDL
MODEL 3
REMARK VINA RESULT:      -3.1      2.432      4.979
REMARK  Name = .\Allicin.pdb
REMARK  7 active torsions:
REMARK  status: ('A' for Active; 'I' for Inactive)
REMARK    1  A    between atoms: C1_1  and  C2_2
REMARK    2  A    between atoms: C2_2  and  O1_10
REMARK    3  A    between atoms: C3_3  and  C4_4
REMARK    4  A    between atoms: C4_4  and  S1_5
REMARK    5  A    between atoms: S1_5  and  S2_6
REMARK    6  A    between atoms: S2_6  and  C5_7
REMARK    7  A    between atoms: C5_7  and  C6_8
REMARK                            x       y       z     vdW  Elec       q    Type
REMARK                         _______ _______ _______ _____ _____    ______ ____
ROOT
ATOM      1  C4  UNL     1     -18.798  58.477   5.666  0.00  0.00    +0.000 C 
ENDROOT
BRANCH   1   4
ATOM      2  C1  UNL     1     -17.684  61.524   3.562  0.00  0.00    +0.000 C 
ATOM      3  C2  UNL     1     -18.027  60.119   3.958  0.00  0.00    +0.000 C 
ATOM      4  C3  UNL     1     -18.429  59.858   5.209  0.00  0.00    +0.000 C 
BRANCH   3   5
ATOM      5  O1  UNL     1     -17.940  59.090   3.021  0.00  0.00    +0.000 OA
ATOM      6  H12 UNL     1     -18.027  58.117   3.290  0.00  0.00    +0.000 HD
ENDBRANCH   3   5
ENDBRANCH   1   4
BRANCH   1   7
ATOM      7  S1  UNL     1     -18.035  58.098   7.281  0.00  0.00    +0.000 S 
BRANCH   7   8
ATOM      8  S2  UNL     1     -16.031  58.168   6.538  0.00  0.00    +0.000 S 
BRANCH   8   9
ATOM      9  C5  UNL     1     -15.996  56.410   6.060  0.00  0.00    +0.000 C 
BRANCH   9  10
ATOM     10  C6  UNL     1     -15.660  56.280   4.602  0.00  0.00    +0.000 C 
ATOM     11  C7  UNL     1     -16.586  55.979   3.687  0.00  0.00    +0.000 C 
ENDBRANCH   9  10
ENDBRANCH   8   9
ENDBRANCH   7   8
ENDBRANCH   1   7
TORSDOF 6
ENDMDL
MODEL 4
REMARK VINA RESULT:      -3.1      2.307      2.868
REMARK  Name = .\Allicin.pdb
REMARK  7 active torsions:
REMARK  status: ('A' for Active; 'I' for Inactive)
REMARK    1  A    between atoms: C1_1  and  C2_2
REMARK    2  A    between atoms: C2_2  and  O1_10
REMARK    3  A    between atoms: C3_3  and  C4_4
REMARK    4  A    between atoms: C4_4  and  S1_5
REMARK    5  A    between atoms: S1_5  and  S2_6
REMARK    6  A    between atoms: S2_6  and  C5_7
REMARK    7  A    between atoms: C5_7  and  C6_8
REMARK                            x       y       z     vdW  Elec       q    Type
REMARK                         _______ _______ _______ _____ _____    ______ ____
ROOT
ATOM      1  C4  UNL     1     -18.054  59.400   4.168  0.00  0.00    +0.000 C 
ENDROOT
BRANCH   1   4
ATOM      2  C1  UNL     1     -16.680  55.833   3.575  0.00  0.00    +0.000 C 
ATOM      3  C2  UNL     1     -16.876  57.204   4.152  0.00  0.00    +0.000 C 
ATOM      4  C3  UNL     1     -17.800  58.021   3.630  0.00  0.00    +0.000 C 
BRANCH   3   5
ATOM      5  O1  UNL     1     -16.106  57.618   5.238  0.00  0.00    +0.000 OA
ATOM      6  H12 UNL     1     -15.738  58.561   5.300  0.00  0.00    +0.000 HD
ENDBRANCH   3   5
ENDBRANCH   1   4
BRANCH   1   7
ATOM      7  S1  UNL     1     -19.317  59.365   5.485  0.00  0.00    +0.000 S 
BRANCH   7   8
ATOM      8  S2  UNL     1     -18.367  60.875   6.666  0.00  0.00    +0.000 S 
BRANCH   8   9
ATOM      9  C5  UNL     1     -16.956  61.075   5.530  0.00  0.00    +0.000 C 
BRANCH   9  10
ATOM     10  C6  UNL     1     -15.729  61.476   6.298  0.00  0.00    +0.000 C 
ATOM     11  C7  UNL     1     -14.969  60.579   6.933  0.00  0.00    +0.000 C 
ENDBRANCH   9  10
ENDBRANCH   8   9
ENDBRANCH   7   8
ENDBRANCH   1   7
TORSDOF 6
ENDMDL
MODEL 5
REMARK VINA RESULT:      -2.9      2.800      5.621
REMARK  Name = .\Allicin.pdb
REMARK  7 active torsions:
REMARK  status: ('A' for Active; 'I' for Inactive)
REMARK    1  A    between atoms: C1_1  and  C2_2
REMARK    2  A    between atoms: C2_2  and  O1_10
REMARK    3  A    between atoms: C3_3  and  C4_4
REMARK    4  A    between atoms: C4_4  and  S1_5
REMARK    5  A    between atoms: S1_5  and  S2_6
REMARK    6  A    between atoms: S2_6  and  C5_7
REMARK    7  A    between atoms: C5_7  and  C6_8
REMARK                            x       y       z     vdW  Elec       q    Type
REMARK                         _______ _______ _______ _____ _____    ______ ____
ROOT
ATOM      1  C4  UNL     1     -17.876  59.591   3.782  0.00  0.00    +0.000 C 
ENDROOT
BRANCH   1   4
ATOM      2  C1  UNL     1     -17.678  63.426   4.242  0.00  0.00    +0.000 C 
ATOM      3  C2  UNL     1     -17.674  62.068   3.604  0.00  0.00    +0.000 C 
ATOM      4  C3  UNL     1     -17.856  60.977   4.359  0.00  0.00    +0.000 C 
BRANCH   3   5
ATOM      5  O1  UNL     1     -17.498  61.946   2.226  0.00  0.00    +0.000 OA
ATOM      6  H12 UNL     1     -17.850  62.645   1.583  0.00  0.00    +0.000 HD
ENDBRANCH   3   5
ENDBRANCH   1   4
BRANCH   1   7
ATOM      7  S1  UNL     1     -18.388  58.368   5.037  0.00  0.00    +0.000 S 
BRANCH   7   8
ATOM      8  S2  UNL     1     -16.748  58.777   6.348  0.00  0.00    +0.000 S 
BRANCH   8   9
ATOM      9  C5  UNL     1     -16.249  57.031   6.497  0.00  0.00    +0.000 C 
BRANCH   9  10
ATOM     10  C6  UNL     1     -14.998  56.783   5.705  0.00  0.00    +0.000 C 
ATOM     11  C7  UNL     1     -14.989  55.993   4.627  0.00  0.00    +0.000 C 
ENDBRANCH   9  10
ENDBRANCH   8   9
ENDBRANCH   7   8
ENDBRANCH   1   7
TORSDOF 6
ENDMDL
MODEL 6
REMARK VINA RESULT:      -2.8      2.773      5.837
REMARK  Name = .\Allicin.pdb
REMARK  7 active torsions:
REMARK  status: ('A' for Active; 'I' for Inactive)
REMARK    1  A    between atoms: C1_1  and  C2_2
REMARK    2  A    between atoms: C2_2  and  O1_10
REMARK    3  A    between atoms: C3_3  and  C4_4
REMARK    4  A    between atoms: C4_4  and  S1_5
REMARK    5  A    between atoms: S1_5  and  S2_6
REMARK    6  A    between atoms: S2_6  and  C5_7
REMARK    7  A    between atoms: C5_7  and  C6_8
REMARK                            x       y       z     vdW  Elec       q    Type
REMARK                         _______ _______ _______ _____ _____    ______ ____
ROOT
ATOM      1  C4  UNL     1     -17.687  62.340   3.355  0.00  0.00    +0.000 C 
ENDROOT
BRANCH   1   4
ATOM      2  C1  UNL     1     -18.455  65.158   0.820  0.00  0.00    +0.000 C 
ATOM      3  C2  UNL     1     -17.965  63.867   1.406  0.00  0.00    +0.000 C 
ATOM      4  C3  UNL     1     -18.143  63.616   2.709  0.00  0.00    +0.000 C 
BRANCH   3   5
ATOM      5  O1  UNL     1     -17.338  62.926   0.590  0.00  0.00    +0.000 OA
ATOM      6  H12 UNL     1     -17.344  61.938   0.818  0.00  0.00    +0.000 HD
ENDBRANCH   3   5
ENDBRANCH   1   4
BRANCH   1   7
ATOM      7  S1  UNL     1     -17.511  62.548   5.160  0.00  0.00    +0.000 S 
BRANCH   7   8
ATOM      8  S2  UNL     1     -17.330  60.452   5.552  0.00  0.00    +0.000 S 
BRANCH   8   9
ATOM      9  C5  UNL     1     -17.883  59.951   3.889  0.00  0.00    +0.000 C 
BRANCH   9  10
ATOM     10  C6  UNL     1     -18.278  58.502   3.893  0.00  0.00    +0.000 C 
ATOM     11  C7  UNL     1     -17.370  57.521   3.877  0.00  0.00    +0.000 C 
ENDBRANCH   9  10
ENDBRANCH   8   9
ENDBRANCH   7   8
ENDBRANCH   1   7
TORSDOF 6
ENDMDL
MODEL 7
REMARK VINA RESULT:      -2.8      1.923      2.306
REMARK  Name = .\Allicin.pdb
REMARK  7 active torsions:
REMARK  status: ('A' for Active; 'I' for Inactive)
REMARK    1  A    between atoms: C1_1  and  C2_2
REMARK    2  A    between atoms: C2_2  and  O1_10
REMARK    3  A    between atoms: C3_3  and  C4_4
REMARK    4  A    between atoms: C4_4  and  S1_5
REMARK    5  A    between atoms: S1_5  and  S2_6
REMARK    6  A    between atoms: S2_6  and  C5_7
REMARK    7  A    between atoms: C5_7  and  C6_8
REMARK                            x       y       z     vdW  Elec       q    Type
REMARK                         _______ _______ _______ _____ _____    ______ ____
ROOT
ATOM      1  C4  UNL     1     -16.973  58.019   6.689  0.00  0.00    +0.000 C 
ENDROOT
BRANCH   1   4
ATOM      2  C1  UNL     1     -16.447  55.991   3.438  0.00  0.00    +0.000 C 
ATOM      3  C2  UNL     1     -17.079  56.856   4.488  0.00  0.00    +0.000 C 
ATOM      4  C3  UNL     1     -16.403  57.150   5.606  0.00  0.00    +0.000 C 
BRANCH   3   5
ATOM      5  O1  UNL     1     -18.363  57.364   4.291  0.00  0.00    +0.000 OA
ATOM      6  H12 UNL     1     -18.814  57.949   4.984  0.00  0.00    +0.000 HD
ENDBRANCH   3   5
ENDBRANCH   1   4
BRANCH   1   7
ATOM      7  S1  UNL     1     -15.944  59.505   6.945  0.00  0.00    +0.000 S 
BRANCH   7   8
ATOM      8  S2  UNL     1     -17.608  60.847   7.029  0.00  0.00    +0.000 S 
BRANCH   8   9
ATOM      9  C5  UNL     1     -16.948  61.969   5.754  0.00  0.00    +0.000 C 
BRANCH   9  10
ATOM     10  C6  UNL     1     -17.758  61.852   4.495  0.00  0.00    +0.000 C 
ATOM     11  C7  UNL     1     -17.720  60.757   3.729  0.00  0.00    +0.000 C 
ENDBRANCH   9  10
ENDBRANCH   8   9
ENDBRANCH   7   8
ENDBRANCH   1   7
TORSDOF 6
ENDMDL
MODEL 8
REMARK VINA RESULT:      -2.8      1.651      2.004
REMARK  Name = .\Allicin.pdb
REMARK  7 active torsions:
REMARK  status: ('A' for Active; 'I' for Inactive)
REMARK    1  A    between atoms: C1_1  and  C2_2
REMARK    2  A    between atoms: C2_2  and  O1_10
REMARK    3  A    between atoms: C3_3  and  C4_4
REMARK    4  A    between atoms: C4_4  and  S1_5
REMARK    5  A    between atoms: S1_5  and  S2_6
REMARK    6  A    between atoms: S2_6  and  C5_7
REMARK    7  A    between atoms: C5_7  and  C6_8
REMARK                            x       y       z     vdW  Elec       q    Type
REMARK                         _______ _______ _______ _____ _____    ______ ____
ROOT
ATOM      1  C4  UNL     1     -18.432  58.872   4.906  0.00  0.00    +0.000 C 
ENDROOT
BRANCH   1   4
ATOM      2  C1  UNL     1     -16.435  55.952   3.344  0.00  0.00    +0.000 C 
ATOM      3  C2  UNL     1     -17.127  56.824   4.349  0.00  0.00    +0.000 C 
ATOM      4  C3  UNL     1     -17.713  57.961   3.953  0.00  0.00    +0.000 C 
BRANCH   3   5
ATOM      5  O1  UNL     1     -17.173  56.440   5.689  0.00  0.00    +0.000 OA
ATOM      6  H12 UNL     1     -16.743  57.000   6.416  0.00  0.00    +0.000 HD
ENDBRANCH   3   5
ENDBRANCH   1   4
BRANCH   1   7
ATOM      7  S1  UNL     1     -17.345  60.231   5.457  0.00  0.00    +0.000 S 
BRANCH   7   8
ATOM      8  S2  UNL     1     -17.694  61.436   3.725  0.00  0.00    +0.000 S 
BRANCH   8   9
ATOM      9  C5  UNL     1     -18.113  62.932   4.676  0.00  0.00    +0.000 C 
BRANCH   9  10
ATOM     10  C6  UNL     1     -19.410  62.732   5.405  0.00  0.00    +0.000 C 
ATOM     11  C7  UNL     1     -20.588  63.033   4.849  0.00  0.00    +0.000 C 
ENDBRANCH   9  10
ENDBRANCH   8   9
ENDBRANCH   7   8
ENDBRANCH   1   7
TORSDOF 6
ENDMDL
MODEL 9
REMARK VINA RESULT:      -2.5      2.196      2.871
REMARK  Name = .\Allicin.pdb
REMARK  7 active torsions:
REMARK  status: ('A' for Active; 'I' for Inactive)
REMARK    1  A    between atoms: C1_1  and  C2_2
REMARK    2  A    between atoms: C2_2  and  O1_10
REMARK    3  A    between atoms: C3_3  and  C4_4
REMARK    4  A    between atoms: C4_4  and  S1_5
REMARK    5  A    between atoms: S1_5  and  S2_6
REMARK    6  A    between atoms: S2_6  and  C5_7
REMARK    7  A    between atoms: C5_7  and  C6_8
REMARK                            x       y       z     vdW  Elec       q    Type
REMARK                         _______ _______ _______ _____ _____    ______ ____
ROOT
ATOM      1  C4  UNL     1     -17.677  61.547   3.710  0.00  0.00    +0.000 C 
ENDROOT
BRANCH   1   4
ATOM      2  C1  UNL     1     -18.463  58.194   5.470  0.00  0.00    +0.000 C 
ATOM      3  C2  UNL     1     -18.141  59.199   4.404  0.00  0.00    +0.000 C 
ATOM      4  C3  UNL     1     -18.010  60.493   4.726  0.00  0.00    +0.000 C 
BRANCH   3   5
ATOM      5  O1  UNL     1     -17.965  58.783   3.085  0.00  0.00    +0.000 OA
ATOM      6  H12 UNL     1     -17.880  57.802   2.845  0.00  0.00    +0.000 HD
ENDBRANCH   3   5
ENDBRANCH   1   4
BRANCH   1   7
ATOM      7  S1  UNL     1     -17.599  63.198   4.484  0.00  0.00    +0.000 S 
BRANCH   7   8
ATOM      8  S2  UNL     1     -18.852  64.127   3.020  0.00  0.00    +0.000 S 
BRANCH   8   9
ATOM      9  C5  UNL     1     -17.475  64.546   1.902  0.00  0.00    +0.000 C 
BRANCH   9  10
ATOM     10  C6  UNL     1     -17.450  63.598   0.738  0.00  0.00    +0.000 C 
ATOM     11  C7  UNL     1     -17.300  64.026  -0.519  0.00  0.00    +0.000 C 
ENDBRANCH   9  10
ENDBRANCH   8   9
ENDBRANCH   7   8
ENDBRANCH   1   7
TORSDOF 6
ENDMDL
