MODEL 1
REMARK VINA RESULT:      -3.6      0.000      0.000
REMARK  Name = .\Allicin.pdb
REMARK  7 active torsions:
REMARK  status: ('A' for Active; 'I' for Inactive)
REMARK    1  A    between atoms: C1_1  and  C2_2
REMARK    2  A    between atoms: C2_2  and  O1_10
REMARK    3  A    between atoms: C3_3  and  C4_4
REMARK    4  A    between atoms: C4_4  and  S1_5
REMARK    5  A    between atoms: S1_5  and  S2_6
REMARK    6  A    between atoms: S2_6  and  C5_7
REMARK    7  A    between atoms: C5_7  and  C6_8
REMARK                            x       y       z     vdW  Elec       q    Type
REMARK                         _______ _______ _______ _____ _____    ______ ____
ROOT
ATOM      1  C4  UNL     1      -6.855  71.234 -47.837  0.00  0.00    +0.000 C 
ENDROOT
BRANCH   1   4
ATOM      2  C1  UNL     1     -10.090  72.214 -45.957  0.00  0.00    +0.000 C 
ATOM      3  C2  UNL     1      -9.024  71.393 -46.620  0.00  0.00    +0.000 C 
ATOM      4  C3  UNL     1      -7.962  71.997 -47.169  0.00  0.00    +0.000 C 
BRANCH   3   5
ATOM      5  O1  UNL     1      -9.133  70.003 -46.649  0.00  0.00    +0.000 OA
ATOM      6  H12 UNL     1      -8.390  69.405 -46.307  0.00  0.00    +0.000 HD
ENDBRANCH   3   5
ENDBRANCH   1   4
BRANCH   1   7
ATOM      7  S1  UNL     1      -5.226  71.752 -47.198  0.00  0.00    +0.000 S 
BRANCH   7   8
ATOM      8  S2  UNL     1      -5.854  71.792 -45.153  0.00  0.00    +0.000 S 
BRANCH   8   9
ATOM      9  C5  UNL     1      -5.277  70.100 -44.796  0.00  0.00    +0.000 C 
BRANCH   9  10
ATOM     10  C6  UNL     1      -4.274  69.670 -45.827  0.00  0.00    +0.000 C 
ATOM     11  C7  UNL     1      -3.302  68.797 -45.546  0.00  0.00    +0.000 C 
ENDBRANCH   9  10
ENDBRANCH   8   9
ENDBRANCH   7   8
ENDBRANCH   1   7
TORSDOF 6
ENDMDL
MODEL 2
REMARK VINA RESULT:      -3.5      1.225      1.802
REMARK  Name = .\Allicin.pdb
REMARK  7 active torsions:
REMARK  status: ('A' for Active; 'I' for Inactive)
REMARK    1  A    between atoms: C1_1  and  C2_2
REMARK    2  A    between atoms: C2_2  and  O1_10
REMARK    3  A    between atoms: C3_3  and  C4_4
REMARK    4  A    between atoms: C4_4  and  S1_5
REMARK    5  A    between atoms: S1_5  and  S2_6
REMARK    6  A    between atoms: S2_6  and  C5_7
REMARK    7  A    between atoms: C5_7  and  C6_8
REMARK                            x       y       z     vdW  Elec       q    Type
REMARK                         _______ _______ _______ _____ _____    ______ ____
ROOT
ATOM      1  C4  UNL     1      -6.351  71.284 -47.824  0.00  0.00    +0.000 C 
ENDROOT
BRANCH   1   4
ATOM      2  C1  UNL     1      -9.775  72.114 -46.230  0.00  0.00    +0.000 C 
ATOM      3  C2  UNL     1      -8.606  71.342 -46.765  0.00  0.00    +0.000 C 
ATOM      4  C3  UNL     1      -7.557  71.995 -47.283  0.00  0.00    +0.000 C 
BRANCH   3   5
ATOM      5  O1  UNL     1      -8.606  69.949 -46.708  0.00  0.00    +0.000 OA
ATOM      6  H12 UNL     1      -9.410  69.406 -47.001  0.00  0.00    +0.000 HD
ENDBRANCH   3   5
ENDBRANCH   1   4
BRANCH   1   7
ATOM      7  S1  UNL     1      -4.821  71.906 -47.046  0.00  0.00    +0.000 S 
BRANCH   7   8
ATOM      8  S2  UNL     1      -4.243  69.999 -46.267  0.00  0.00    +0.000 S 
BRANCH   8   9
ATOM      9  C5  UNL     1      -5.273  70.141 -44.770  0.00  0.00    +0.000 C 
BRANCH   9  10
ATOM     10  C6  UNL     1      -5.304  71.566 -44.299  0.00  0.00    +0.000 C 
ATOM     11  C7  UNL     1      -4.601  71.975 -43.238  0.00  0.00    +0.000 C 
ENDBRANCH   9  10
ENDBRANCH   8   9
ENDBRANCH   7   8
ENDBRANCH   1   7
TORSDOF 6
ENDMDL
MODEL 3
REMARK VINA RESULT:      -3.5      1.848      4.644
REMARK  Name = .\Allicin.pdb
REMARK  7 active torsions:
REMARK  status: ('A' for Active; 'I' for Inactive)
REMARK    1  A    between atoms: C1_1  and  C2_2
REMARK    2  A    between atoms: C2_2  and  O1_10
REMARK    3  A    between atoms: C3_3  and  C4_4
REMARK    4  A    between atoms: C4_4  and  S1_5
REMARK    5  A    between atoms: S1_5  and  S2_6
REMARK    6  A    between atoms: S2_6  and  C5_7
REMARK    7  A    between atoms: C5_7  and  C6_8
REMARK                            x       y       z     vdW  Elec       q    Type
REMARK                         _______ _______ _______ _____ _____    ______ ____
ROOT
ATOM      1  C4  UNL     1      -5.718  71.676 -44.232  0.00  0.00    +0.000 C 
ENDROOT
BRANCH   1   4
ATOM      2  C1  UNL     1      -3.577  68.817 -45.715  0.00  0.00    +0.000 C 
ATOM      3  C2  UNL     1      -4.582  69.923 -45.591  0.00  0.00    +0.000 C 
ATOM      4  C3  UNL     1      -4.739  70.553 -44.420  0.00  0.00    +0.000 C 
BRANCH   3   5
ATOM      5  O1  UNL     1      -5.339  70.303 -46.699  0.00  0.00    +0.000 OA
ATOM      6  H12 UNL     1      -5.182  69.896 -47.614  0.00  0.00    +0.000 HD
ENDBRANCH   3   5
ENDBRANCH   1   4
BRANCH   1   7
ATOM      7  S1  UNL     1      -4.970  73.278 -44.686  0.00  0.00    +0.000 S 
BRANCH   7   8
ATOM      8  S2  UNL     1      -6.431  73.726 -46.182  0.00  0.00    +0.000 S 
BRANCH   8   9
ATOM      9  C5  UNL     1      -7.760  72.781 -45.369  0.00  0.00    +0.000 C 
BRANCH   9  10
ATOM     10  C6  UNL     1      -8.691  72.211 -46.399  0.00  0.00    +0.000 C 
ATOM     11  C7  UNL     1      -8.814  70.894 -46.589  0.00  0.00    +0.000 C 
ENDBRANCH   9  10
ENDBRANCH   8   9
ENDBRANCH   7   8
ENDBRANCH   1   7
TORSDOF 6
ENDMDL
MODEL 4
REMARK VINA RESULT:      -3.4      2.260      4.593
REMARK  Name = .\Allicin.pdb
REMARK  7 active torsions:
REMARK  status: ('A' for Active; 'I' for Inactive)
REMARK    1  A    between atoms: C1_1  and  C2_2
REMARK    2  A    between atoms: C2_2  and  O1_10
REMARK    3  A    between atoms: C3_3  and  C4_4
REMARK    4  A    between atoms: C4_4  and  S1_5
REMARK    5  A    between atoms: S1_5  and  S2_6
REMARK    6  A    between atoms: S2_6  and  C5_7
REMARK    7  A    between atoms: C5_7  and  C6_8
REMARK                            x       y       z     vdW  Elec       q    Type
REMARK                         _______ _______ _______ _____ _____    ______ ____
ROOT
ATOM      1  C4  UNL     1      -4.360  72.208 -43.281  0.00  0.00    +0.000 C 
ENDROOT
BRANCH   1   4
ATOM      2  C1  UNL     1      -3.984  69.176 -45.653  0.00  0.00    +0.000 C 
ATOM      3  C2  UNL     1      -4.552  70.132 -44.646  0.00  0.00    +0.000 C 
ATOM      4  C3  UNL     1      -3.845  71.207 -44.275  0.00  0.00    +0.000 C 
BRANCH   3   5
ATOM      5  O1  UNL     1      -5.820  69.908 -44.112  0.00  0.00    +0.000 OA
ATOM      6  H12 UNL     1      -5.961  69.772 -43.118  0.00  0.00    +0.000 HD
ENDBRANCH   3   5
ENDBRANCH   1   4
BRANCH   1   7
ATOM      7  S1  UNL     1      -4.610  73.837 -44.065  0.00  0.00    +0.000 S 
BRANCH   7   8
ATOM      8  S2  UNL     1      -6.654  73.464 -44.576  0.00  0.00    +0.000 S 
BRANCH   8   9
ATOM      9  C5  UNL     1      -6.317  73.249 -46.353  0.00  0.00    +0.000 C 
BRANCH   9  10
ATOM     10  C6  UNL     1      -6.965  71.989 -46.852  0.00  0.00    +0.000 C 
ATOM     11  C7  UNL     1      -6.493  71.322 -47.909  0.00  0.00    +0.000 C 
ENDBRANCH   9  10
ENDBRANCH   8   9
ENDBRANCH   7   8
ENDBRANCH   1   7
TORSDOF 6
ENDMDL
MODEL 5
REMARK VINA RESULT:      -3.3      2.219      2.930
REMARK  Name = .\Allicin.pdb
REMARK  7 active torsions:
REMARK  status: ('A' for Active; 'I' for Inactive)
REMARK    1  A    between atoms: C1_1  and  C2_2
REMARK    2  A    between atoms: C2_2  and  O1_10
REMARK    3  A    between atoms: C3_3  and  C4_4
REMARK    4  A    between atoms: C4_4  and  S1_5
REMARK    5  A    between atoms: S1_5  and  S2_6
REMARK    6  A    between atoms: S2_6  and  C5_7
REMARK    7  A    between atoms: C5_7  and  C6_8
REMARK                            x       y       z     vdW  Elec       q    Type
REMARK                         _______ _______ _______ _____ _____    ______ ____
ROOT
ATOM      1  C4  UNL     1      -6.010  72.707 -44.401  0.00  0.00    +0.000 C 
ENDROOT
BRANCH   1   4
ATOM      2  C1  UNL     1      -6.227  71.525 -48.077  0.00  0.00    +0.000 C 
ATOM      3  C2  UNL     1      -6.401  71.580 -46.588  0.00  0.00    +0.000 C 
ATOM      4  C3  UNL     1      -5.863  72.588 -45.891  0.00  0.00    +0.000 C 
BRANCH   3   5
ATOM      5  O1  UNL     1      -7.137  70.590 -45.937  0.00  0.00    +0.000 OA
ATOM      6  H12 UNL     1      -8.150  70.597 -45.934  0.00  0.00    +0.000 HD
ENDBRANCH   3   5
ENDBRANCH   1   4
BRANCH   1   7
ATOM      7  S1  UNL     1      -4.630  71.881 -43.539  0.00  0.00    +0.000 S 
BRANCH   7   8
ATOM      8  S2  UNL     1      -3.151  72.513 -44.949  0.00  0.00    +0.000 S 
BRANCH   8   9
ATOM      9  C5  UNL     1      -2.347  70.881 -45.051  0.00  0.00    +0.000 C 
BRANCH   9  10
ATOM     10  C6  UNL     1      -2.992  70.055 -46.126  0.00  0.00    +0.000 C 
ATOM     11  C7  UNL     1      -3.781  69.015 -45.841  0.00  0.00    +0.000 C 
ENDBRANCH   9  10
ENDBRANCH   8   9
ENDBRANCH   7   8
ENDBRANCH   1   7
TORSDOF 6
ENDMDL
MODEL 6
REMARK VINA RESULT:      -3.3      1.942      2.196
REMARK  Name = .\Allicin.pdb
REMARK  7 active torsions:
REMARK  status: ('A' for Active; 'I' for Inactive)
REMARK    1  A    between atoms: C1_1  and  C2_2
REMARK    2  A    between atoms: C2_2  and  O1_10
REMARK    3  A    between atoms: C3_3  and  C4_4
REMARK    4  A    between atoms: C4_4  and  S1_5
REMARK    5  A    between atoms: S1_5  and  S2_6
REMARK    6  A    between atoms: S2_6  and  C5_7
REMARK    7  A    between atoms: C5_7  and  C6_8
REMARK                            x       y       z     vdW  Elec       q    Type
REMARK                         _______ _______ _______ _____ _____    ______ ____
ROOT
ATOM      1  C4  UNL     1      -6.007  71.091 -46.441  0.00  0.00    +0.000 C 
ENDROOT
BRANCH   1   4
ATOM      2  C1  UNL     1      -9.737  72.102 -46.302  0.00  0.00    +0.000 C 
ATOM      3  C2  UNL     1      -8.490  71.290 -46.490  0.00  0.00    +0.000 C 
ATOM      4  C3  UNL     1      -7.292  71.851 -46.282  0.00  0.00    +0.000 C 
BRANCH   3   5
ATOM      5  O1  UNL     1      -8.582  69.950 -46.864  0.00  0.00    +0.000 OA
ATOM      6  H12 UNL     1      -8.761  69.220 -46.184  0.00  0.00    +0.000 HD
ENDBRANCH   3   5
ENDBRANCH   1   4
BRANCH   1   7
ATOM      7  S1  UNL     1      -5.455  70.400 -44.844  0.00  0.00    +0.000 S 
BRANCH   7   8
ATOM      8  S2  UNL     1      -3.865  69.253 -45.699  0.00  0.00    +0.000 S 
BRANCH   8   9
ATOM      9  C5  UNL     1      -2.906  70.711 -46.223  0.00  0.00    +0.000 C 
BRANCH   9  10
ATOM     10  C6  UNL     1      -2.514  71.527 -45.026  0.00  0.00    +0.000 C 
ATOM     11  C7  UNL     1      -1.639  71.079 -44.120  0.00  0.00    +0.000 C 
ENDBRANCH   9  10
ENDBRANCH   8   9
ENDBRANCH   7   8
ENDBRANCH   1   7
TORSDOF 6
ENDMDL
MODEL 7
REMARK VINA RESULT:      -3.2      3.199      4.267
REMARK  Name = .\Allicin.pdb
REMARK  7 active torsions:
REMARK  status: ('A' for Active; 'I' for Inactive)
REMARK    1  A    between atoms: C1_1  and  C2_2
REMARK    2  A    between atoms: C2_2  and  O1_10
REMARK    3  A    between atoms: C3_3  and  C4_4
REMARK    4  A    between atoms: C4_4  and  S1_5
REMARK    5  A    between atoms: S1_5  and  S2_6
REMARK    6  A    between atoms: S2_6  and  C5_7
REMARK    7  A    between atoms: C5_7  and  C6_8
REMARK                            x       y       z     vdW  Elec       q    Type
REMARK                         _______ _______ _______ _____ _____    ______ ____
ROOT
ATOM      1  C4  UNL     1      -5.339  73.239 -45.424  0.00  0.00    +0.000 C 
ENDROOT
BRANCH   1   4
ATOM      2  C1  UNL     1      -3.016  72.101 -42.549  0.00  0.00    +0.000 C 
ATOM      3  C2  UNL     1      -4.186  72.184 -43.483  0.00  0.00    +0.000 C 
ATOM      4  C3  UNL     1      -4.204  73.111 -44.449  0.00  0.00    +0.000 C 
BRANCH   3   5
ATOM      5  O1  UNL     1      -5.244  71.284 -43.354  0.00  0.00    +0.000 OA
ATOM      6  H12 UNL     1      -5.137  70.406 -42.861  0.00  0.00    +0.000 HD
ENDBRANCH   3   5
ENDBRANCH   1   4
BRANCH   1   7
ATOM      7  S1  UNL     1      -5.179  72.023 -46.776  0.00  0.00    +0.000 S 
BRANCH   7   8
ATOM      8  S2  UNL     1      -3.100  72.408 -47.101  0.00  0.00    +0.000 S 
BRANCH   8   9
ATOM      9  C5  UNL     1      -2.576  70.714 -46.683  0.00  0.00    +0.000 C 
BRANCH   9  10
ATOM     10  C6  UNL     1      -3.776  69.864 -46.378  0.00  0.00    +0.000 C 
ATOM     11  C7  UNL     1      -3.710  68.822 -45.544  0.00  0.00    +0.000 C 
ENDBRANCH   9  10
ENDBRANCH   8   9
ENDBRANCH   7   8
ENDBRANCH   1   7
TORSDOF 6
ENDMDL
MODEL 8
REMARK VINA RESULT:      -3.2      1.849      2.423
REMARK  Name = .\Allicin.pdb
REMARK  7 active torsions:
REMARK  status: ('A' for Active; 'I' for Inactive)
REMARK    1  A    between atoms: C1_1  and  C2_2
REMARK    2  A    between atoms: C2_2  and  O1_10
REMARK    3  A    between atoms: C3_3  and  C4_4
REMARK    4  A    between atoms: C4_4  and  S1_5
REMARK    5  A    between atoms: S1_5  and  S2_6
REMARK    6  A    between atoms: S2_6  and  C5_7
REMARK    7  A    between atoms: C5_7  and  C6_8
REMARK                            x       y       z     vdW  Elec       q    Type
REMARK                         _______ _______ _______ _____ _____    ______ ____
ROOT
ATOM      1  C4  UNL     1      -6.375  70.966 -45.496  0.00  0.00    +0.000 C 
ENDROOT
BRANCH   1   4
ATOM      2  C1  UNL     1      -9.742  72.323 -46.832  0.00  0.00    +0.000 C 
ATOM      3  C2  UNL     1      -8.627  71.384 -46.478  0.00  0.00    +0.000 C 
ATOM      4  C3  UNL     1      -7.522  71.854 -45.886  0.00  0.00    +0.000 C 
BRANCH   3   5
ATOM      5  O1  UNL     1      -8.750  70.022 -46.753  0.00  0.00    +0.000 OA
ATOM      6  H12 UNL     1      -9.491  69.463 -46.345  0.00  0.00    +0.000 HD
ENDBRANCH   3   5
ENDBRANCH   1   4
BRANCH   1   7
ATOM      7  S1  UNL     1      -5.330  71.766 -44.232  0.00  0.00    +0.000 S 
BRANCH   7   8
ATOM      8  S2  UNL     1      -3.573  70.659 -44.743  0.00  0.00    +0.000 S 
BRANCH   8   9
ATOM      9  C5  UNL     1      -3.913  70.675 -46.533  0.00  0.00    +0.000 C 
BRANCH   9  10
ATOM     10  C6  UNL     1      -3.204  71.829 -47.182  0.00  0.00    +0.000 C 
ATOM     11  C7  UNL     1      -3.868  72.865 -47.701  0.00  0.00    +0.000 C 
ENDBRANCH   9  10
ENDBRANCH   8   9
ENDBRANCH   7   8
ENDBRANCH   1   7
TORSDOF 6
ENDMDL
MODEL 9
REMARK VINA RESULT:      -3.2      2.284      4.627
REMARK  Name = .\Allicin.pdb
REMARK  7 active torsions:
REMARK  status: ('A' for Active; 'I' for Inactive)
REMARK    1  A    between atoms: C1_1  and  C2_2
REMARK    2  A    between atoms: C2_2  and  O1_10
REMARK    3  A    between atoms: C3_3  and  C4_4
REMARK    4  A    between atoms: C4_4  and  S1_5
REMARK    5  A    between atoms: S1_5  and  S2_6
REMARK    6  A    between atoms: S2_6  and  C5_7
REMARK    7  A    between atoms: C5_7  and  C6_8
REMARK                            x       y       z     vdW  Elec       q    Type
REMARK                         _______ _______ _______ _____ _____    ______ ____
ROOT
ATOM      1  C4  UNL     1      -5.617  72.808 -45.220  0.00  0.00    +0.000 C 
ENDROOT
BRANCH   1   4
ATOM      2  C1  UNL     1      -4.076  69.282 -45.604  0.00  0.00    +0.000 C 
ATOM      3  C2  UNL     1      -4.865  70.438 -45.064  0.00  0.00    +0.000 C 
ATOM      4  C3  UNL     1      -4.841  71.616 -45.700  0.00  0.00    +0.000 C 
BRANCH   3   5
ATOM      5  O1  UNL     1      -5.633  70.279 -43.911  0.00  0.00    +0.000 OA
ATOM      6  H12 UNL     1      -6.250  71.011 -43.579  0.00  0.00    +0.000 HD
ENDBRANCH   3   5
ENDBRANCH   1   4
BRANCH   1   7
ATOM      7  S1  UNL     1      -5.550  74.166 -46.438  0.00  0.00    +0.000 S 
BRANCH   7   8
ATOM      8  S2  UNL     1      -7.666  74.479 -46.454  0.00  0.00    +0.000 S 
BRANCH   8   9
ATOM      9  C5  UNL     1      -8.017  73.014 -47.479  0.00  0.00    +0.000 C 
BRANCH   9  10
ATOM     10  C6  UNL     1      -8.991  72.114 -46.774  0.00  0.00    +0.000 C 
ATOM     11  C7  UNL     1      -8.753  70.810 -46.604  0.00  0.00    +0.000 C 
ENDBRANCH   9  10
ENDBRANCH   8   9
ENDBRANCH   7   8
ENDBRANCH   1   7
TORSDOF 6
ENDMDL
