MODEL 1
REMARK VINA RESULT:      -3.8      0.000      0.000
REMARK  Name = .\Allicin.pdb
REMARK  7 active torsions:
REMARK  status: ('A' for Active; 'I' for Inactive)
REMARK    1  A    between atoms: C1_1  and  C2_2
REMARK    2  A    between atoms: C2_2  and  O1_10
REMARK    3  A    between atoms: C3_3  and  C4_4
REMARK    4  A    between atoms: C4_4  and  S1_5
REMARK    5  A    between atoms: S1_5  and  S2_6
REMARK    6  A    between atoms: S2_6  and  C5_7
REMARK    7  A    between atoms: C5_7  and  C6_8
REMARK                            x       y       z     vdW  Elec       q    Type
REMARK                         _______ _______ _______ _____ _____    ______ ____
ROOT
ATOM      1  C4  UNL     1       3.014  55.450   7.538  0.00  0.00    +0.000 C 
ENDROOT
BRANCH   1   4
ATOM      2  C1  UNL     1       5.175  58.070   5.688  0.00  0.00    +0.000 C 
ATOM      3  C2  UNL     1       4.007  57.220   6.093  0.00  0.00    +0.000 C 
ATOM      4  C3  UNL     1       4.145  56.323   7.077  0.00  0.00    +0.000 C 
BRANCH   3   5
ATOM      5  O1  UNL     1       2.778  57.377   5.454  0.00  0.00    +0.000 OA
ATOM      6  H12 UNL     1       2.210  56.580   5.191  0.00  0.00    +0.000 HD
ENDBRANCH   3   5
ENDBRANCH   1   4
BRANCH   1   7
ATOM      7  S1  UNL     1       3.358  53.693   7.182  0.00  0.00    +0.000 S 
BRANCH   7   8
ATOM      8  S2  UNL     1       3.957  53.232   9.183  0.00  0.00    +0.000 S 
BRANCH   8   9
ATOM      9  C5  UNL     1       2.661  54.253   9.957  0.00  0.00    +0.000 C 
BRANCH   9  10
ATOM     10  C6  UNL     1       1.402  53.450  10.121  0.00  0.00    +0.000 C 
ATOM     11  C7  UNL     1       0.232  53.860   9.623  0.00  0.00    +0.000 C 
ENDBRANCH   9  10
ENDBRANCH   8   9
ENDBRANCH   7   8
ENDBRANCH   1   7
TORSDOF 6
ENDMDL
MODEL 2
REMARK VINA RESULT:      -3.7      2.200      2.680
REMARK  Name = .\Allicin.pdb
REMARK  7 active torsions:
REMARK  status: ('A' for Active; 'I' for Inactive)
REMARK    1  A    between atoms: C1_1  and  C2_2
REMARK    2  A    between atoms: C2_2  and  O1_10
REMARK    3  A    between atoms: C3_3  and  C4_4
REMARK    4  A    between atoms: C4_4  and  S1_5
REMARK    5  A    between atoms: S1_5  and  S2_6
REMARK    6  A    between atoms: S2_6  and  C5_7
REMARK    7  A    between atoms: C5_7  and  C6_8
REMARK                            x       y       z     vdW  Elec       q    Type
REMARK                         _______ _______ _______ _____ _____    ______ ____
ROOT
ATOM      1  C4  UNL     1       2.120  53.679   8.110  0.00  0.00    +0.000 C 
ENDROOT
BRANCH   1   4
ATOM      2  C1  UNL     1       3.705  57.036   7.027  0.00  0.00    +0.000 C 
ATOM      3  C2  UNL     1       2.985  55.721   6.975  0.00  0.00    +0.000 C 
ATOM      4  C3  UNL     1       2.840  54.996   8.091  0.00  0.00    +0.000 C 
BRANCH   3   5
ATOM      5  O1  UNL     1       2.455  55.265   5.768  0.00  0.00    +0.000 OA
ATOM      6  H12 UNL     1       1.459  55.286   5.584  0.00  0.00    +0.000 HD
ENDBRANCH   3   5
ENDBRANCH   1   4
BRANCH   1   7
ATOM      7  S1  UNL     1       1.572  53.257   9.799  0.00  0.00    +0.000 S 
BRANCH   7   8
ATOM      8  S2  UNL     1       3.557  53.103  10.583  0.00  0.00    +0.000 S 
BRANCH   8   9
ATOM      9  C5  UNL     1       3.225  51.565  11.503  0.00  0.00    +0.000 C 
BRANCH   9  10
ATOM     10  C6  UNL     1       1.783  51.175  11.352  0.00  0.00    +0.000 C 
ATOM     11  C7  UNL     1       1.206  50.275  12.154  0.00  0.00    +0.000 C 
ENDBRANCH   9  10
ENDBRANCH   8   9
ENDBRANCH   7   8
ENDBRANCH   1   7
TORSDOF 6
ENDMDL
MODEL 3
REMARK VINA RESULT:      -3.7      1.640      2.036
REMARK  Name = .\Allicin.pdb
REMARK  7 active torsions:
REMARK  status: ('A' for Active; 'I' for Inactive)
REMARK    1  A    between atoms: C1_1  and  C2_2
REMARK    2  A    between atoms: C2_2  and  O1_10
REMARK    3  A    between atoms: C3_3  and  C4_4
REMARK    4  A    between atoms: C4_4  and  S1_5
REMARK    5  A    between atoms: S1_5  and  S2_6
REMARK    6  A    between atoms: S2_6  and  C5_7
REMARK    7  A    between atoms: C5_7  and  C6_8
REMARK                            x       y       z     vdW  Elec       q    Type
REMARK                         _______ _______ _______ _____ _____    ______ ____
ROOT
ATOM      1  C4  UNL     1       3.443  53.089   6.845  0.00  0.00    +0.000 C 
ENDROOT
BRANCH   1   4
ATOM      2  C1  UNL     1       3.497  56.915   7.407  0.00  0.00    +0.000 C 
ATOM      3  C2  UNL     1       3.198  55.569   6.818  0.00  0.00    +0.000 C 
ATOM      4  C3  UNL     1       3.713  54.467   7.378  0.00  0.00    +0.000 C 
BRANCH   3   5
ATOM      5  O1  UNL     1       2.373  55.467   5.698  0.00  0.00    +0.000 OA
ATOM      6  H12 UNL     1       1.522  56.012   5.615  0.00  0.00    +0.000 HD
ENDBRANCH   3   5
ENDBRANCH   1   4
BRANCH   1   7
ATOM      7  S1  UNL     1       4.001  51.812   8.023  0.00  0.00    +0.000 S 
BRANCH   7   8
ATOM      8  S2  UNL     1       2.027  51.327   8.690  0.00  0.00    +0.000 S 
BRANCH   8   9
ATOM      9  C5  UNL     1       2.042  52.528  10.060  0.00  0.00    +0.000 C 
BRANCH   9  10
ATOM     10  C6  UNL     1       0.820  53.398   9.996  0.00  0.00    +0.000 C 
ATOM     11  C7  UNL     1       0.436  53.997   8.865  0.00  0.00    +0.000 C 
ENDBRANCH   9  10
ENDBRANCH   8   9
ENDBRANCH   7   8
ENDBRANCH   1   7
TORSDOF 6
ENDMDL
MODEL 4
REMARK VINA RESULT:      -3.7      2.923      3.436
REMARK  Name = .\Allicin.pdb
REMARK  7 active torsions:
REMARK  status: ('A' for Active; 'I' for Inactive)
REMARK    1  A    between atoms: C1_1  and  C2_2
REMARK    2  A    between atoms: C2_2  and  O1_10
REMARK    3  A    between atoms: C3_3  and  C4_4
REMARK    4  A    between atoms: C4_4  and  S1_5
REMARK    5  A    between atoms: S1_5  and  S2_6
REMARK    6  A    between atoms: S2_6  and  C5_7
REMARK    7  A    between atoms: C5_7  and  C6_8
REMARK                            x       y       z     vdW  Elec       q    Type
REMARK                         _______ _______ _______ _____ _____    ______ ____
ROOT
ATOM      1  C4  UNL     1       3.313  55.734   8.223  0.00  0.00    +0.000 C 
ENDROOT
BRANCH   1   4
ATOM      2  C1  UNL     1       5.019  58.010   5.603  0.00  0.00    +0.000 C 
ATOM      3  C2  UNL     1       3.990  57.177   6.308  0.00  0.00    +0.000 C 
ATOM      4  C3  UNL     1       4.299  56.571   7.461  0.00  0.00    +0.000 C 
BRANCH   3   5
ATOM      5  O1  UNL     1       2.710  57.049   5.769  0.00  0.00    +0.000 OA
ATOM      6  H12 UNL     1       1.915  57.531   6.170  0.00  0.00    +0.000 HD
ENDBRANCH   3   5
ENDBRANCH   1   4
BRANCH   1   7
ATOM      7  S1  UNL     1       3.808  55.570   9.972  0.00  0.00    +0.000 S 
BRANCH   7   8
ATOM      8  S2  UNL     1       5.377  57.017   9.838  0.00  0.00    +0.000 S 
BRANCH   8   9
ATOM      9  C5  UNL     1       4.476  58.290  10.779  0.00  0.00    +0.000 C 
BRANCH   9  10
ATOM     10  C6  UNL     1       4.252  57.826  12.190  0.00  0.00    +0.000 C 
ATOM     11  C7  UNL     1       3.124  58.099  12.853  0.00  0.00    +0.000 C 
ENDBRANCH   9  10
ENDBRANCH   8   9
ENDBRANCH   7   8
ENDBRANCH   1   7
TORSDOF 6
ENDMDL
MODEL 5
REMARK VINA RESULT:      -3.6      1.935      2.222
REMARK  Name = .\Allicin.pdb
REMARK  7 active torsions:
REMARK  status: ('A' for Active; 'I' for Inactive)
REMARK    1  A    between atoms: C1_1  and  C2_2
REMARK    2  A    between atoms: C2_2  and  O1_10
REMARK    3  A    between atoms: C3_3  and  C4_4
REMARK    4  A    between atoms: C4_4  and  S1_5
REMARK    5  A    between atoms: S1_5  and  S2_6
REMARK    6  A    between atoms: S2_6  and  C5_7
REMARK    7  A    between atoms: C5_7  and  C6_8
REMARK                            x       y       z     vdW  Elec       q    Type
REMARK                         _______ _______ _______ _____ _____    ______ ____
ROOT
ATOM      1  C4  UNL     1       4.598  54.097   8.511  0.00  0.00    +0.000 C 
ENDROOT
BRANCH   1   4
ATOM      2  C1  UNL     1       2.679  56.772   6.481  0.00  0.00    +0.000 C 
ATOM      3  C2  UNL     1       3.262  55.457   6.907  0.00  0.00    +0.000 C 
ATOM      4  C3  UNL     1       3.997  55.383   8.023  0.00  0.00    +0.000 C 
BRANCH   3   5
ATOM      5  O1  UNL     1       3.024  54.312   6.147  0.00  0.00    +0.000 OA
ATOM      6  H12 UNL     1       3.422  54.196   5.222  0.00  0.00    +0.000 HD
ENDBRANCH   3   5
ENDBRANCH   1   4
BRANCH   1   7
ATOM      7  S1  UNL     1       3.902  53.622  10.130  0.00  0.00    +0.000 S 
BRANCH   7   8
ATOM      8  S2  UNL     1       2.627  52.105   9.324  0.00  0.00    +0.000 S 
BRANCH   8   9
ATOM      9  C5  UNL     1       1.225  52.505  10.418  0.00  0.00    +0.000 C 
BRANCH   9  10
ATOM     10  C6  UNL     1       0.486  53.702   9.891  0.00  0.00    +0.000 C 
ATOM     11  C7  UNL     1       0.460  54.000   8.589  0.00  0.00    +0.000 C 
ENDBRANCH   9  10
ENDBRANCH   8   9
ENDBRANCH   7   8
ENDBRANCH   1   7
TORSDOF 6
ENDMDL
MODEL 6
REMARK VINA RESULT:      -3.6      1.773      1.975
REMARK  Name = .\Allicin.pdb
REMARK  7 active torsions:
REMARK  status: ('A' for Active; 'I' for Inactive)
REMARK    1  A    between atoms: C1_1  and  C2_2
REMARK    2  A    between atoms: C2_2  and  O1_10
REMARK    3  A    between atoms: C3_3  and  C4_4
REMARK    4  A    between atoms: C4_4  and  S1_5
REMARK    5  A    between atoms: S1_5  and  S2_6
REMARK    6  A    between atoms: S2_6  and  C5_7
REMARK    7  A    between atoms: C5_7  and  C6_8
REMARK                            x       y       z     vdW  Elec       q    Type
REMARK                         _______ _______ _______ _____ _____    ______ ____
ROOT
ATOM      1  C4  UNL     1       5.063  55.481   8.487  0.00  0.00    +0.000 C 
ENDROOT
BRANCH   1   4
ATOM      2  C1  UNL     1       4.947  57.972   5.531  0.00  0.00    +0.000 C 
ATOM      3  C2  UNL     1       5.145  56.714   6.324  0.00  0.00    +0.000 C 
ATOM      4  C3  UNL     1       4.897  56.709   7.640  0.00  0.00    +0.000 C 
BRANCH   3   5
ATOM      5  O1  UNL     1       5.572  55.550   5.685  0.00  0.00    +0.000 OA
ATOM      6  H12 UNL     1       5.339  55.359   4.718  0.00  0.00    +0.000 HD
ENDBRANCH   3   5
ENDBRANCH   1   4
BRANCH   1   7
ATOM      7  S1  UNL     1       4.256  55.693  10.111  0.00  0.00    +0.000 S 
BRANCH   7   8
ATOM      8  S2  UNL     1       3.470  53.704  10.167  0.00  0.00    +0.000 S 
BRANCH   8   9
ATOM      9  C5  UNL     1       2.760  53.787   8.490  0.00  0.00    +0.000 C 
BRANCH   9  10
ATOM     10  C6  UNL     1       1.264  53.889   8.569  0.00  0.00    +0.000 C 
ATOM     11  C7  UNL     1       0.607  53.766   9.726  0.00  0.00    +0.000 C 
ENDBRANCH   9  10
ENDBRANCH   8   9
ENDBRANCH   7   8
ENDBRANCH   1   7
TORSDOF 6
ENDMDL
MODEL 7
REMARK VINA RESULT:      -3.6      5.353      6.720
REMARK  Name = .\Allicin.pdb
REMARK  7 active torsions:
REMARK  status: ('A' for Active; 'I' for Inactive)
REMARK    1  A    between atoms: C1_1  and  C2_2
REMARK    2  A    between atoms: C2_2  and  O1_10
REMARK    3  A    between atoms: C3_3  and  C4_4
REMARK    4  A    between atoms: C4_4  and  S1_5
REMARK    5  A    between atoms: S1_5  and  S2_6
REMARK    6  A    between atoms: S2_6  and  C5_7
REMARK    7  A    between atoms: C5_7  and  C6_8
REMARK                            x       y       z     vdW  Elec       q    Type
REMARK                         _______ _______ _______ _____ _____    ______ ____
ROOT
ATOM      1  C4  UNL     1       1.185  49.021   7.019  0.00  0.00    +0.000 C 
ENDROOT
BRANCH   1   4
ATOM      2  C1  UNL     1      -1.391  49.286   4.146  0.00  0.00    +0.000 C 
ATOM      3  C2  UNL     1      -0.795  49.079   5.507  0.00  0.00    +0.000 C 
ATOM      4  C3  UNL     1       0.527  49.203   5.682  0.00  0.00    +0.000 C 
BRANCH   3   5
ATOM      5  O1  UNL     1      -1.620  48.775   6.589  0.00  0.00    +0.000 OA
ATOM      6  H12 UNL     1      -2.105  49.498   7.107  0.00  0.00    +0.000 HD
ENDBRANCH   3   5
ENDBRANCH   1   4
BRANCH   1   7
ATOM      7  S1  UNL     1       1.966  50.572   7.579  0.00  0.00    +0.000 S 
BRANCH   7   8
ATOM      8  S2  UNL     1       1.668  50.167   9.658  0.00  0.00    +0.000 S 
BRANCH   8   9
ATOM      9  C5  UNL     1       2.110  51.852  10.195  0.00  0.00    +0.000 C 
BRANCH   9  10
ATOM     10  C6  UNL     1       0.868  52.676  10.379  0.00  0.00    +0.000 C 
ATOM     11  C7  UNL     1       0.655  53.799   9.687  0.00  0.00    +0.000 C 
ENDBRANCH   9  10
ENDBRANCH   8   9
ENDBRANCH   7   8
ENDBRANCH   1   7
TORSDOF 6
ENDMDL
MODEL 8
REMARK VINA RESULT:      -3.5      2.921      4.592
REMARK  Name = .\Allicin.pdb
REMARK  7 active torsions:
REMARK  status: ('A' for Active; 'I' for Inactive)
REMARK    1  A    between atoms: C1_1  and  C2_2
REMARK    2  A    between atoms: C2_2  and  O1_10
REMARK    3  A    between atoms: C3_3  and  C4_4
REMARK    4  A    between atoms: C4_4  and  S1_5
REMARK    5  A    between atoms: S1_5  and  S2_6
REMARK    6  A    between atoms: S2_6  and  C5_7
REMARK    7  A    between atoms: C5_7  and  C6_8
REMARK                            x       y       z     vdW  Elec       q    Type
REMARK                         _______ _______ _______ _____ _____    ______ ____
ROOT
ATOM      1  C4  UNL     1       2.682  55.263   7.411  0.00  0.00    +0.000 C 
ENDROOT
BRANCH   1   4
ATOM      2  C1  UNL     1       1.361  52.990  10.247  0.00  0.00    +0.000 C 
ATOM      3  C2  UNL     1       1.428  53.789   8.979  0.00  0.00    +0.000 C 
ATOM      4  C3  UNL     1       2.546  54.456   8.670  0.00  0.00    +0.000 C 
BRANCH   3   5
ATOM      5  O1  UNL     1       0.331  53.820   8.118  0.00  0.00    +0.000 OA
ATOM      6  H12 UNL     1      -0.182  52.979   7.882  0.00  0.00    +0.000 HD
ENDBRANCH   3   5
ENDBRANCH   1   4
BRANCH   1   7
ATOM      7  S1  UNL     1       3.859  56.639   7.641  0.00  0.00    +0.000 S 
BRANCH   7   8
ATOM      8  S2  UNL     1       5.262  55.474   8.759  0.00  0.00    +0.000 S 
BRANCH   8   9
ATOM      9  C5  UNL     1       5.546  56.763  10.015  0.00  0.00    +0.000 C 
BRANCH   9  10
ATOM     10  C6  UNL     1       4.294  56.990  10.813  0.00  0.00    +0.000 C 
ATOM     11  C7  UNL     1       4.306  57.646  11.977  0.00  0.00    +0.000 C 
ENDBRANCH   9  10
ENDBRANCH   8   9
ENDBRANCH   7   8
ENDBRANCH   1   7
TORSDOF 6
ENDMDL
MODEL 9
REMARK VINA RESULT:      -3.4      3.145      6.368
REMARK  Name = .\Allicin.pdb
REMARK  7 active torsions:
REMARK  status: ('A' for Active; 'I' for Inactive)
REMARK    1  A    between atoms: C1_1  and  C2_2
REMARK    2  A    between atoms: C2_2  and  O1_10
REMARK    3  A    between atoms: C3_3  and  C4_4
REMARK    4  A    between atoms: C4_4  and  S1_5
REMARK    5  A    between atoms: S1_5  and  S2_6
REMARK    6  A    between atoms: S2_6  and  C5_7
REMARK    7  A    between atoms: C5_7  and  C6_8
REMARK                            x       y       z     vdW  Elec       q    Type
REMARK                         _______ _______ _______ _____ _____    ______ ____
ROOT
ATOM      1  C4  UNL     1       1.170  53.665   9.846  0.00  0.00    +0.000 C 
ENDROOT
BRANCH   1   4
ATOM      2  C1  UNL     1       0.747  50.307  11.718  0.00  0.00    +0.000 C 
ATOM      3  C2  UNL     1       0.434  51.624  11.071  0.00  0.00    +0.000 C 
ATOM      4  C3  UNL     1       1.417  52.346  10.519  0.00  0.00    +0.000 C 
BRANCH   3   5
ATOM      5  O1  UNL     1      -0.882  52.085  11.033  0.00  0.00    +0.000 OA
ATOM      6  H12 UNL     1      -1.166  52.825  10.403  0.00  0.00    +0.000 HD
ENDBRANCH   3   5
ENDBRANCH   1   4
BRANCH   1   7
ATOM      7  S1  UNL     1       2.704  54.649   9.753  0.00  0.00    +0.000 S 
BRANCH   7   8
ATOM      8  S2  UNL     1       2.824  54.569   7.619  0.00  0.00    +0.000 S 
BRANCH   8   9
ATOM      9  C5  UNL     1       4.227  55.726   7.513  0.00  0.00    +0.000 C 
BRANCH   9  10
ATOM     10  C6  UNL     1       3.826  56.955   6.750  0.00  0.00    +0.000 C 
ATOM     11  C7  UNL     1       4.678  57.597   5.945  0.00  0.00    +0.000 C 
ENDBRANCH   9  10
ENDBRANCH   8   9
ENDBRANCH   7   8
ENDBRANCH   1   7
TORSDOF 6
ENDMDL
