MODEL 1
REMARK VINA RESULT:       4.7      0.000      0.000
REMARK  Name = .\Allicin.pdb
REMARK  7 active torsions:
REMARK  status: ('A' for Active; 'I' for Inactive)
REMARK    1  A    between atoms: C1_1  and  C2_2
REMARK    2  A    between atoms: C2_2  and  O1_10
REMARK    3  A    between atoms: C3_3  and  C4_4
REMARK    4  A    between atoms: C4_4  and  S1_5
REMARK    5  A    between atoms: S1_5  and  S2_6
REMARK    6  A    between atoms: S2_6  and  C5_7
REMARK    7  A    between atoms: C5_7  and  C6_8
REMARK                            x       y       z     vdW  Elec       q    Type
REMARK                         _______ _______ _______ _____ _____    ______ ____
ROOT
ATOM      1  C4  UNL     1      -4.903  50.615 -33.101  0.00  0.00    +0.000 C 
ENDROOT
BRANCH   1   4
ATOM      2  C1  UNL     1      -5.939  46.959 -33.820  0.00  0.00    +0.000 C 
ATOM      3  C2  UNL     1      -5.197  48.262 -33.865  0.00  0.00    +0.000 C 
ATOM      4  C3  UNL     1      -5.607  49.290 -33.111  0.00  0.00    +0.000 C 
BRANCH   3   5
ATOM      5  O1  UNL     1      -4.073  48.395 -34.680  0.00  0.00    +0.000 OA
ATOM      6  H12 UNL     1      -3.955  49.191 -35.296  0.00  0.00    +0.000 HD
ENDBRANCH   3   5
ENDBRANCH   1   4
BRANCH   1   7
ATOM      7  S1  UNL     1      -4.723  51.247 -31.397  0.00  0.00    +0.000 S 
BRANCH   7   8
ATOM      8  S2  UNL     1      -6.700  50.689 -30.803  0.00  0.00    +0.000 S 
BRANCH   8   9
ATOM      9  C5  UNL     1      -6.139  49.438 -29.603  0.00  0.00    +0.000 C 
BRANCH   9  10
ATOM     10  C6  UNL     1      -7.250  48.472 -29.307  0.00  0.00    +0.000 C 
ATOM     11  C7  UNL     1      -7.448  47.375 -30.044  0.00  0.00    +0.000 C 
ENDBRANCH   9  10
ENDBRANCH   8   9
ENDBRANCH   7   8
ENDBRANCH   1   7
TORSDOF 6
ENDMDL
MODEL 2
REMARK VINA RESULT:       7.2      2.673      4.721
REMARK  Name = .\Allicin.pdb
REMARK  7 active torsions:
REMARK  status: ('A' for Active; 'I' for Inactive)
REMARK    1  A    between atoms: C1_1  and  C2_2
REMARK    2  A    between atoms: C2_2  and  O1_10
REMARK    3  A    between atoms: C3_3  and  C4_4
REMARK    4  A    between atoms: C4_4  and  S1_5
REMARK    5  A    between atoms: S1_5  and  S2_6
REMARK    6  A    between atoms: S2_6  and  C5_7
REMARK    7  A    between atoms: C5_7  and  C6_8
REMARK                            x       y       z     vdW  Elec       q    Type
REMARK                         _______ _______ _______ _____ _____    ______ ____
ROOT
ATOM      1  C4  UNL     1      -6.159  48.263 -30.997  0.00  0.00    +0.000 C 
ENDROOT
BRANCH   1   4
ATOM      2  C1  UNL     1      -7.138  51.763 -29.674  0.00  0.00    +0.000 C 
ATOM      3  C2  UNL     1      -6.408  50.668 -30.394  0.00  0.00    +0.000 C 
ATOM      4  C3  UNL     1      -6.837  49.403 -30.294  0.00  0.00    +0.000 C 
BRANCH   3   5
ATOM      5  O1  UNL     1      -5.295  50.972 -31.177  0.00  0.00    +0.000 OA
ATOM      6  H12 UNL     1      -4.770  50.249 -31.657  0.00  0.00    +0.000 HD
ENDBRANCH   3   5
ENDBRANCH   1   4
BRANCH   1   7
ATOM      7  S1  UNL     1      -7.329  46.898 -31.308  0.00  0.00    +0.000 S 
BRANCH   7   8
ATOM      8  S2  UNL     1      -7.118  46.978 -33.435  0.00  0.00    +0.000 S 
BRANCH   8   9
ATOM      9  C5  UNL     1      -5.303  47.133 -33.390  0.00  0.00    +0.000 C 
BRANCH   9  10
ATOM     10  C6  UNL     1      -4.870  48.343 -34.166  0.00  0.00    +0.000 C 
ATOM     11  C7  UNL     1      -5.448  49.536 -33.995  0.00  0.00    +0.000 C 
ENDBRANCH   9  10
ENDBRANCH   8   9
ENDBRANCH   7   8
ENDBRANCH   1   7
TORSDOF 6
ENDMDL
MODEL 3
REMARK VINA RESULT:       7.5      2.544      3.313
REMARK  Name = .\Allicin.pdb
REMARK  7 active torsions:
REMARK  status: ('A' for Active; 'I' for Inactive)
REMARK    1  A    between atoms: C1_1  and  C2_2
REMARK    2  A    between atoms: C2_2  and  O1_10
REMARK    3  A    between atoms: C3_3  and  C4_4
REMARK    4  A    between atoms: C4_4  and  S1_5
REMARK    5  A    between atoms: S1_5  and  S2_6
REMARK    6  A    between atoms: S2_6  and  C5_7
REMARK    7  A    between atoms: C5_7  and  C6_8
REMARK                            x       y       z     vdW  Elec       q    Type
REMARK                         _______ _______ _______ _____ _____    ______ ____
ROOT
ATOM      1  C4  UNL     1      -4.950  48.760 -34.174  0.00  0.00    +0.000 C 
ENDROOT
BRANCH   1   4
ATOM      2  C1  UNL     1      -4.801  51.349 -31.305  0.00  0.00    +0.000 C 
ATOM      3  C2  UNL     1      -5.122  50.698 -32.618  0.00  0.00    +0.000 C 
ATOM      4  C3  UNL     1      -4.656  49.472 -32.885  0.00  0.00    +0.000 C 
BRANCH   3   5
ATOM      5  O1  UNL     1      -5.917  51.365 -33.550  0.00  0.00    +0.000 OA
ATOM      6  H12 UNL     1      -6.814  50.997 -33.842  0.00  0.00    +0.000 HD
ENDBRANCH   3   5
ENDBRANCH   1   4
BRANCH   1   7
ATOM      7  S1  UNL     1      -5.173  46.970 -33.895  0.00  0.00    +0.000 S 
BRANCH   7   8
ATOM      8  S2  UNL     1      -7.146  47.171 -33.093  0.00  0.00    +0.000 S 
BRANCH   8   9
ATOM      9  C5  UNL     1      -6.624  46.904 -31.368  0.00  0.00    +0.000 C 
BRANCH   9  10
ATOM     10  C6  UNL     1      -7.448  47.752 -30.443  0.00  0.00    +0.000 C 
ATOM     11  C7  UNL     1      -6.895  48.667 -29.640  0.00  0.00    +0.000 C 
ENDBRANCH   9  10
ENDBRANCH   8   9
ENDBRANCH   7   8
ENDBRANCH   1   7
TORSDOF 6
ENDMDL
MODEL 4
REMARK VINA RESULT:       7.6      2.055      3.038
REMARK  Name = .\Allicin.pdb
REMARK  7 active torsions:
REMARK  status: ('A' for Active; 'I' for Inactive)
REMARK    1  A    between atoms: C1_1  and  C2_2
REMARK    2  A    between atoms: C2_2  and  O1_10
REMARK    3  A    between atoms: C3_3  and  C4_4
REMARK    4  A    between atoms: C4_4  and  S1_5
REMARK    5  A    between atoms: S1_5  and  S2_6
REMARK    6  A    between atoms: S2_6  and  C5_7
REMARK    7  A    between atoms: C5_7  and  C6_8
REMARK                            x       y       z     vdW  Elec       q    Type
REMARK                         _______ _______ _______ _____ _____    ______ ____
ROOT
ATOM      1  C4  UNL     1      -7.232  47.794 -32.113  0.00  0.00    +0.000 C 
ENDROOT
BRANCH   1   4
ATOM      2  C1  UNL     1      -4.548  46.898 -34.750  0.00  0.00    +0.000 C 
ATOM      3  C2  UNL     1      -5.434  47.690 -33.835  0.00  0.00    +0.000 C 
ATOM      4  C3  UNL     1      -6.325  47.060 -33.059  0.00  0.00    +0.000 C 
BRANCH   3   5
ATOM      5  O1  UNL     1      -5.316  49.079 -33.784  0.00  0.00    +0.000 OA
ATOM      6  H12 UNL     1      -6.125  49.676 -33.656  0.00  0.00    +0.000 HD
ENDBRANCH   3   5
ENDBRANCH   1   4
BRANCH   1   7
ATOM      7  S1  UNL     1      -7.367  46.911 -30.521  0.00  0.00    +0.000 S 
BRANCH   7   8
ATOM      8  S2  UNL     1      -7.053  48.663 -29.334  0.00  0.00    +0.000 S 
BRANCH   8   9
ATOM      9  C5  UNL     1      -6.727  49.745 -30.763  0.00  0.00    +0.000 C 
BRANCH   9  10
ATOM     10  C6  UNL     1      -5.323  50.273 -30.699  0.00  0.00    +0.000 C 
ATOM     11  C7  UNL     1      -4.790  50.988 -31.695  0.00  0.00    +0.000 C 
ENDBRANCH   9  10
ENDBRANCH   8   9
ENDBRANCH   7   8
ENDBRANCH   1   7
TORSDOF 6
ENDMDL
