MODEL 1
REMARK VINA RESULT:      -3.2      0.000      0.000
REMARK  Name = .\Allicin.pdb
REMARK  7 active torsions:
REMARK  status: ('A' for Active; 'I' for Inactive)
REMARK    1  A    between atoms: C1_1  and  C2_2
REMARK    2  A    between atoms: C2_2  and  O1_10
REMARK    3  A    between atoms: C3_3  and  C4_4
REMARK    4  A    between atoms: C4_4  and  S1_5
REMARK    5  A    between atoms: S1_5  and  S2_6
REMARK    6  A    between atoms: S2_6  and  C5_7
REMARK    7  A    between atoms: C5_7  and  C6_8
REMARK                            x       y       z     vdW  Elec       q    Type
REMARK                         _______ _______ _______ _____ _____    ______ ____
ROOT
ATOM      1  C4  UNL     1       7.297  46.165  24.760  0.00  0.00    +0.000 C 
ENDROOT
BRANCH   1   4
ATOM      2  C1  UNL     1       5.514  45.630  28.150  0.00  0.00    +0.000 C 
ATOM      3  C2  UNL     1       5.971  46.259  26.867  0.00  0.00    +0.000 C 
ATOM      4  C3  UNL     1       6.812  45.597  26.062  0.00  0.00    +0.000 C 
BRANCH   3   5
ATOM      5  O1  UNL     1       5.507  47.525  26.509  0.00  0.00    +0.000 OA
ATOM      6  H12 UNL     1       4.616  47.651  26.043  0.00  0.00    +0.000 HD
ENDBRANCH   3   5
ENDBRANCH   1   4
BRANCH   1   7
ATOM      7  S1  UNL     1       8.661  45.162  24.078  0.00  0.00    +0.000 S 
BRANCH   7   8
ATOM      8  S2  UNL     1       8.088  45.466  22.040  0.00  0.00    +0.000 S 
BRANCH   8   9
ATOM      9  C5  UNL     1       7.280  47.068  22.358  0.00  0.00    +0.000 C 
BRANCH   9  10
ATOM     10  C6  UNL     1       8.016  48.166  21.645  0.00  0.00    +0.000 C 
ATOM     11  C7  UNL     1       9.171  48.656  22.103  0.00  0.00    +0.000 C 
ENDBRANCH   9  10
ENDBRANCH   8   9
ENDBRANCH   7   8
ENDBRANCH   1   7
TORSDOF 6
ENDMDL
MODEL 2
REMARK VINA RESULT:      -2.9      2.539      5.856
REMARK  Name = .\Allicin.pdb
REMARK  7 active torsions:
REMARK  status: ('A' for Active; 'I' for Inactive)
REMARK    1  A    between atoms: C1_1  and  C2_2
REMARK    2  A    between atoms: C2_2  and  O1_10
REMARK    3  A    between atoms: C3_3  and  C4_4
REMARK    4  A    between atoms: C4_4  and  S1_5
REMARK    5  A    between atoms: S1_5  and  S2_6
REMARK    6  A    between atoms: S2_6  and  C5_7
REMARK    7  A    between atoms: C5_7  and  C6_8
REMARK                            x       y       z     vdW  Elec       q    Type
REMARK                         _______ _______ _______ _____ _____    ______ ____
ROOT
ATOM      1  C4  UNL     1       7.330  46.767  23.781  0.00  0.00    +0.000 C 
ENDROOT
BRANCH   1   4
ATOM      2  C1  UNL     1      10.620  47.648  21.949  0.00  0.00    +0.000 C 
ATOM      3  C2  UNL     1       9.286  47.785  22.621  0.00  0.00    +0.000 C 
ATOM      4  C3  UNL     1       8.660  46.697  23.089  0.00  0.00    +0.000 C 
BRANCH   3   5
ATOM      5  O1  UNL     1       8.708  49.045  22.770  0.00  0.00    +0.000 OA
ATOM      6  H12 UNL     1       7.705  49.179  22.718  0.00  0.00    +0.000 HD
ENDBRANCH   3   5
ENDBRANCH   1   4
BRANCH   1   7
ATOM      7  S1  UNL     1       7.294  45.671  25.240  0.00  0.00    +0.000 S 
BRANCH   7   8
ATOM      8  S2  UNL     1       5.847  46.842  26.293  0.00  0.00    +0.000 S 
BRANCH   8   9
ATOM      9  C5  UNL     1       5.443  45.527  27.488  0.00  0.00    +0.000 C 
BRANCH   9  10
ATOM     10  C6  UNL     1       3.959  45.299  27.521  0.00  0.00    +0.000 C 
ATOM     11  C7  UNL     1       3.428  44.079  27.399  0.00  0.00    +0.000 C 
ENDBRANCH   9  10
ENDBRANCH   8   9
ENDBRANCH   7   8
ENDBRANCH   1   7
TORSDOF 6
ENDMDL
MODEL 3
REMARK VINA RESULT:      -2.9      2.212      2.677
REMARK  Name = .\Allicin.pdb
REMARK  7 active torsions:
REMARK  status: ('A' for Active; 'I' for Inactive)
REMARK    1  A    between atoms: C1_1  and  C2_2
REMARK    2  A    between atoms: C2_2  and  O1_10
REMARK    3  A    between atoms: C3_3  and  C4_4
REMARK    4  A    between atoms: C4_4  and  S1_5
REMARK    5  A    between atoms: S1_5  and  S2_6
REMARK    6  A    between atoms: S2_6  and  C5_7
REMARK    7  A    between atoms: C5_7  and  C6_8
REMARK                            x       y       z     vdW  Elec       q    Type
REMARK                         _______ _______ _______ _____ _____    ______ ____
ROOT
ATOM      1  C4  UNL     1       6.775  45.831  26.151  0.00  0.00    +0.000 C 
ENDROOT
BRANCH   1   4
ATOM      2  C1  UNL     1       3.686  44.102  27.707  0.00  0.00    +0.000 C 
ATOM      3  C2  UNL     1       4.648  45.163  27.263  0.00  0.00    +0.000 C 
ATOM      4  C3  UNL     1       5.776  44.818  26.630  0.00  0.00    +0.000 C 
BRANCH   3   5
ATOM      5  O1  UNL     1       4.358  46.507  27.497  0.00  0.00    +0.000 OA
ATOM      6  H12 UNL     1       5.071  47.159  27.803  0.00  0.00    +0.000 HD
ENDBRANCH   3   5
ENDBRANCH   1   4
BRANCH   1   7
ATOM      7  S1  UNL     1       7.966  45.077  24.992  0.00  0.00    +0.000 S 
BRANCH   7   8
ATOM      8  S2  UNL     1       7.751  46.607  23.512  0.00  0.00    +0.000 S 
BRANCH   8   9
ATOM      9  C5  UNL     1       8.074  45.491  22.108  0.00  0.00    +0.000 C 
BRANCH   9  10
ATOM     10  C6  UNL     1       8.346  44.101  22.607  0.00  0.00    +0.000 C 
ATOM     11  C7  UNL     1       9.104  43.240  21.922  0.00  0.00    +0.000 C 
ENDBRANCH   9  10
ENDBRANCH   8   9
ENDBRANCH   7   8
ENDBRANCH   1   7
TORSDOF 6
ENDMDL
MODEL 4
REMARK VINA RESULT:      -2.8      3.046      5.794
REMARK  Name = .\Allicin.pdb
REMARK  7 active torsions:
REMARK  status: ('A' for Active; 'I' for Inactive)
REMARK    1  A    between atoms: C1_1  and  C2_2
REMARK    2  A    between atoms: C2_2  and  O1_10
REMARK    3  A    between atoms: C3_3  and  C4_4
REMARK    4  A    between atoms: C4_4  and  S1_5
REMARK    5  A    between atoms: S1_5  and  S2_6
REMARK    6  A    between atoms: S2_6  and  C5_7
REMARK    7  A    between atoms: C5_7  and  C6_8
REMARK                            x       y       z     vdW  Elec       q    Type
REMARK                         _______ _______ _______ _____ _____    ______ ____
ROOT
ATOM      1  C4  UNL     1       7.686  46.284  24.204  0.00  0.00    +0.000 C 
ENDROOT
BRANCH   1   4
ATOM      2  C1  UNL     1      10.200  44.172  22.161  0.00  0.00    +0.000 C 
ATOM      3  C2  UNL     1       9.606  45.015  23.250  0.00  0.00    +0.000 C 
ATOM      4  C3  UNL     1       8.343  45.448  23.144  0.00  0.00    +0.000 C 
BRANCH   3   5
ATOM      5  O1  UNL     1      10.365  45.333  24.376  0.00  0.00    +0.000 OA
ATOM      6  H12 UNL     1       9.947  45.395  25.297  0.00  0.00    +0.000 HD
ENDBRANCH   3   5
ENDBRANCH   1   4
BRANCH   1   7
ATOM      7  S1  UNL     1       7.131  45.250  25.602  0.00  0.00    +0.000 S 
BRANCH   7   8
ATOM      8  S2  UNL     1       5.781  46.721  26.371  0.00  0.00    +0.000 S 
BRANCH   8   9
ATOM      9  C5  UNL     1       5.443  45.809  27.912  0.00  0.00    +0.000 C 
BRANCH   9  10
ATOM     10  C6  UNL     1       4.696  44.542  27.607  0.00  0.00    +0.000 C 
ATOM     11  C7  UNL     1       3.387  44.540  27.340  0.00  0.00    +0.000 C 
ENDBRANCH   9  10
ENDBRANCH   8   9
ENDBRANCH   7   8
ENDBRANCH   1   7
TORSDOF 6
ENDMDL
MODEL 5
REMARK VINA RESULT:      -2.8      1.805      1.906
REMARK  Name = .\Allicin.pdb
REMARK  7 active torsions:
REMARK  status: ('A' for Active; 'I' for Inactive)
REMARK    1  A    between atoms: C1_1  and  C2_2
REMARK    2  A    between atoms: C2_2  and  O1_10
REMARK    3  A    between atoms: C3_3  and  C4_4
REMARK    4  A    between atoms: C4_4  and  S1_5
REMARK    5  A    between atoms: S1_5  and  S2_6
REMARK    6  A    between atoms: S2_6  and  C5_7
REMARK    7  A    between atoms: C5_7  and  C6_8
REMARK                            x       y       z     vdW  Elec       q    Type
REMARK                         _______ _______ _______ _____ _____    ______ ____
ROOT
ATOM      1  C4  UNL     1       7.838  45.468  24.710  0.00  0.00    +0.000 C 
ENDROOT
BRANCH   1   4
ATOM      2  C1  UNL     1       5.318  45.760  27.629  0.00  0.00    +0.000 C 
ATOM      3  C2  UNL     1       6.198  45.178  26.563  0.00  0.00    +0.000 C 
ATOM      4  C3  UNL     1       6.929  45.987  25.786  0.00  0.00    +0.000 C 
BRANCH   3   5
ATOM      5  O1  UNL     1       6.263  43.795  26.393  0.00  0.00    +0.000 OA
ATOM      6  H12 UNL     1       5.932  43.156  27.107  0.00  0.00    +0.000 HD
ENDBRANCH   3   5
ENDBRANCH   1   4
BRANCH   1   7
ATOM      7  S1  UNL     1       7.780  46.539  23.233  0.00  0.00    +0.000 S 
BRANCH   7   8
ATOM      8  S2  UNL     1       9.536  45.698  22.348  0.00  0.00    +0.000 S 
BRANCH   8   9
ATOM      9  C5  UNL     1      10.298  47.313  21.986  0.00  0.00    +0.000 C 
BRANCH   9  10
ATOM     10  C6  UNL     1       9.451  48.419  22.544  0.00  0.00    +0.000 C 
ATOM     11  C7  UNL     1       9.628  49.695  22.187  0.00  0.00    +0.000 C 
ENDBRANCH   9  10
ENDBRANCH   8   9
ENDBRANCH   7   8
ENDBRANCH   1   7
TORSDOF 6
ENDMDL
MODEL 6
REMARK VINA RESULT:      -2.4      2.286      5.348
REMARK  Name = .\Allicin.pdb
REMARK  7 active torsions:
REMARK  status: ('A' for Active; 'I' for Inactive)
REMARK    1  A    between atoms: C1_1  and  C2_2
REMARK    2  A    between atoms: C2_2  and  O1_10
REMARK    3  A    between atoms: C3_3  and  C4_4
REMARK    4  A    between atoms: C4_4  and  S1_5
REMARK    5  A    between atoms: S1_5  and  S2_6
REMARK    6  A    between atoms: S2_6  and  C5_7
REMARK    7  A    between atoms: C5_7  and  C6_8
REMARK                            x       y       z     vdW  Elec       q    Type
REMARK                         _______ _______ _______ _____ _____    ______ ____
ROOT
ATOM      1  C4  UNL     1       8.274  46.448  22.674  0.00  0.00    +0.000 C 
ENDROOT
BRANCH   1   4
ATOM      2  C1  UNL     1      10.300  49.694  22.112  0.00  0.00    +0.000 C 
ATOM      3  C2  UNL     1       9.172  48.705  22.122  0.00  0.00    +0.000 C 
ATOM      4  C3  UNL     1       9.364  47.479  22.624  0.00  0.00    +0.000 C 
BRANCH   3   5
ATOM      5  O1  UNL     1       7.922  49.071  21.621  0.00  0.00    +0.000 OA
ATOM      6  H12 UNL     1       7.339  49.750  22.095  0.00  0.00    +0.000 HD
ENDBRANCH   3   5
ENDBRANCH   1   4
BRANCH   1   7
ATOM      7  S1  UNL     1       7.177  46.726  24.106  0.00  0.00    +0.000 S 
BRANCH   7   8
ATOM      8  S2  UNL     1       7.608  44.838  25.015  0.00  0.00    +0.000 S 
BRANCH   8   9
ATOM      9  C5  UNL     1       6.728  45.223  26.564  0.00  0.00    +0.000 C 
BRANCH   9  10
ATOM     10  C6  UNL     1       6.001  46.531  26.431  0.00  0.00    +0.000 C 
ATOM     11  C7  UNL     1       4.844  46.763  27.057  0.00  0.00    +0.000 C 
ENDBRANCH   9  10
ENDBRANCH   8   9
ENDBRANCH   7   8
ENDBRANCH   1   7
TORSDOF 6
ENDMDL
MODEL 7
REMARK VINA RESULT:      -2.4      3.430      5.667
REMARK  Name = .\Allicin.pdb
REMARK  7 active torsions:
REMARK  status: ('A' for Active; 'I' for Inactive)
REMARK    1  A    between atoms: C1_1  and  C2_2
REMARK    2  A    between atoms: C2_2  and  O1_10
REMARK    3  A    between atoms: C3_3  and  C4_4
REMARK    4  A    between atoms: C4_4  and  S1_5
REMARK    5  A    between atoms: S1_5  and  S2_6
REMARK    6  A    between atoms: S2_6  and  C5_7
REMARK    7  A    between atoms: C5_7  and  C6_8
REMARK                            x       y       z     vdW  Elec       q    Type
REMARK                         _______ _______ _______ _____ _____    ______ ____
ROOT
ATOM      1  C4  UNL     1       7.927  45.598  22.109  0.00  0.00    +0.000 C 
ENDROOT
BRANCH   1   4
ATOM      2  C1  UNL     1      10.635  42.842  22.289  0.00  0.00    +0.000 C 
ATOM      3  C2  UNL     1       9.310  43.525  22.120  0.00  0.00    +0.000 C 
ATOM      4  C3  UNL     1       9.220  44.852  22.276  0.00  0.00    +0.000 C 
BRANCH   3   5
ATOM      5  O1  UNL     1       8.180  42.779  21.786  0.00  0.00    +0.000 OA
ATOM      6  H12 UNL     1       8.246  41.799  21.536  0.00  0.00    +0.000 HD
ENDBRANCH   3   5
ENDBRANCH   1   4
BRANCH   1   7
ATOM      7  S1  UNL     1       7.673  46.779  23.478  0.00  0.00    +0.000 S 
BRANCH   7   8
ATOM      8  S2  UNL     1       7.662  45.273  24.997  0.00  0.00    +0.000 S 
BRANCH   8   9
ATOM      9  C5  UNL     1       6.502  46.172  26.077  0.00  0.00    +0.000 C 
BRANCH   9  10
ATOM     10  C6  UNL     1       5.974  45.254  27.143  0.00  0.00    +0.000 C 
ATOM     11  C7  UNL     1       4.680  44.930  27.219  0.00  0.00    +0.000 C 
ENDBRANCH   9  10
ENDBRANCH   8   9
ENDBRANCH   7   8
ENDBRANCH   1   7
TORSDOF 6
ENDMDL
MODEL 8
REMARK VINA RESULT:      -2.3      1.994      2.392
REMARK  Name = .\Allicin.pdb
REMARK  7 active torsions:
REMARK  status: ('A' for Active; 'I' for Inactive)
REMARK    1  A    between atoms: C1_1  and  C2_2
REMARK    2  A    between atoms: C2_2  and  O1_10
REMARK    3  A    between atoms: C3_3  and  C4_4
REMARK    4  A    between atoms: C4_4  and  S1_5
REMARK    5  A    between atoms: S1_5  and  S2_6
REMARK    6  A    between atoms: S2_6  and  C5_7
REMARK    7  A    between atoms: C5_7  and  C6_8
REMARK                            x       y       z     vdW  Elec       q    Type
REMARK                         _______ _______ _______ _____ _____    ______ ____
ROOT
ATOM      1  C4  UNL     1       6.447  46.416  26.816  0.00  0.00    +0.000 C 
ENDROOT
BRANCH   1   4
ATOM      2  C1  UNL     1       3.372  44.176  27.510  0.00  0.00    +0.000 C 
ATOM      3  C2  UNL     1       4.752  44.616  27.120  0.00  0.00    +0.000 C 
ATOM      4  C3  UNL     1       5.080  45.912  27.181  0.00  0.00    +0.000 C 
BRANCH   3   5
ATOM      5  O1  UNL     1       5.693  43.672  26.709  0.00  0.00    +0.000 OA
ATOM      6  H12 UNL     1       5.633  42.702  26.999  0.00  0.00    +0.000 HD
ENDBRANCH   3   5
ENDBRANCH   1   4
BRANCH   1   7
ATOM      7  S1  UNL     1       6.580  46.700  25.018  0.00  0.00    +0.000 S 
BRANCH   7   8
ATOM      8  S2  UNL     1       8.072  45.195  24.722  0.00  0.00    +0.000 S 
BRANCH   8   9
ATOM      9  C5  UNL     1       8.547  45.791  23.067  0.00  0.00    +0.000 C 
BRANCH   9  10
ATOM     10  C6  UNL     1       8.226  47.252  22.934  0.00  0.00    +0.000 C 
ATOM     11  C7  UNL     1       9.139  48.143  22.537  0.00  0.00    +0.000 C 
ENDBRANCH   9  10
ENDBRANCH   8   9
ENDBRANCH   7   8
ENDBRANCH   1   7
TORSDOF 6
ENDMDL
MODEL 9
REMARK VINA RESULT:      -2.1      3.062      5.917
REMARK  Name = .\Allicin.pdb
REMARK  7 active torsions:
REMARK  status: ('A' for Active; 'I' for Inactive)
REMARK    1  A    between atoms: C1_1  and  C2_2
REMARK    2  A    between atoms: C2_2  and  O1_10
REMARK    3  A    between atoms: C3_3  and  C4_4
REMARK    4  A    between atoms: C4_4  and  S1_5
REMARK    5  A    between atoms: S1_5  and  S2_6
REMARK    6  A    between atoms: S2_6  and  C5_7
REMARK    7  A    between atoms: C5_7  and  C6_8
REMARK                            x       y       z     vdW  Elec       q    Type
REMARK                         _______ _______ _______ _____ _____    ______ ____
ROOT
ATOM      1  C4  UNL     1       7.640  46.150  24.230  0.00  0.00    +0.000 C 
ENDROOT
BRANCH   1   4
ATOM      2  C1  UNL     1      10.418  44.591  22.036  0.00  0.00    +0.000 C 
ATOM      3  C2  UNL     1       9.065  44.962  22.566  0.00  0.00    +0.000 C 
ATOM      4  C3  UNL     1       8.964  45.733  23.656  0.00  0.00    +0.000 C 
BRANCH   3   5
ATOM      5  O1  UNL     1       7.916  44.516  21.913  0.00  0.00    +0.000 OA
ATOM      6  H12 UNL     1       7.049  44.357  22.413  0.00  0.00    +0.000 HD
ENDBRANCH   3   5
ENDBRANCH   1   4
BRANCH   1   7
ATOM      7  S1  UNL     1       7.205  45.128  25.678  0.00  0.00    +0.000 S 
BRANCH   7   8
ATOM      8  S2  UNL     1       5.865  46.576  26.506  0.00  0.00    +0.000 S 
BRANCH   8   9
ATOM      9  C5  UNL     1       5.695  45.713  28.102  0.00  0.00    +0.000 C 
BRANCH   9  10
ATOM     10  C6  UNL     1       6.700  46.242  29.084  0.00  0.00    +0.000 C 
ATOM     11  C7  UNL     1       6.721  45.841  30.359  0.00  0.00    +0.000 C 
ENDBRANCH   9  10
ENDBRANCH   8   9
ENDBRANCH   7   8
ENDBRANCH   1   7
TORSDOF 6
ENDMDL
