MODEL 1
REMARK VINA RESULT:      -4.5      0.000      0.000
REMARK  Name = .\Allicin.pdb
REMARK  7 active torsions:
REMARK  status: ('A' for Active; 'I' for Inactive)
REMARK    1  A    between atoms: C1_1  and  C2_2
REMARK    2  A    between atoms: C2_2  and  O1_10
REMARK    3  A    between atoms: C3_3  and  C4_4
REMARK    4  A    between atoms: C4_4  and  S1_5
REMARK    5  A    between atoms: S1_5  and  S2_6
REMARK    6  A    between atoms: S2_6  and  C5_7
REMARK    7  A    between atoms: C5_7  and  C6_8
REMARK                            x       y       z     vdW  Elec       q    Type
REMARK                         _______ _______ _______ _____ _____    ______ ____
ROOT
ATOM      1  C4  UNL     1       2.660  77.980 101.895  0.00  0.00    +0.000 C 
ENDROOT
BRANCH   1   4
ATOM      2  C1  UNL     1       3.931  76.280  98.662  0.00  0.00    +0.000 C 
ATOM      3  C2  UNL     1       3.032  76.957  99.654  0.00  0.00    +0.000 C 
ATOM      4  C3  UNL     1       3.504  77.290 100.862  0.00  0.00    +0.000 C 
BRANCH   3   5
ATOM      5  O1  UNL     1       1.714  77.253  99.309  0.00  0.00    +0.000 OA
ATOM      6  H12 UNL     1       0.932  76.910  99.855  0.00  0.00    +0.000 HD
ENDBRANCH   3   5
ENDBRANCH   1   4
BRANCH   1   7
ATOM      7  S1  UNL     1       2.655  77.047 103.464  0.00  0.00    +0.000 S 
BRANCH   7   8
ATOM      8  S2  UNL     1       1.035  78.157 104.312  0.00  0.00    +0.000 S 
BRANCH   8   9
ATOM      9  C5  UNL     1       1.694  79.778 103.805  0.00  0.00    +0.000 C 
BRANCH   9  10
ATOM     10  C6  UNL     1       0.570  80.685 103.393  0.00  0.00    +0.000 C 
ATOM     11  C7  UNL     1       0.066  81.606 104.220  0.00  0.00    +0.000 C 
ENDBRANCH   9  10
ENDBRANCH   8   9
ENDBRANCH   7   8
ENDBRANCH   1   7
TORSDOF 6
ENDMDL
MODEL 2
REMARK VINA RESULT:      -4.5      2.200      6.027
REMARK  Name = .\Allicin.pdb
REMARK  7 active torsions:
REMARK  status: ('A' for Active; 'I' for Inactive)
REMARK    1  A    between atoms: C1_1  and  C2_2
REMARK    2  A    between atoms: C2_2  and  O1_10
REMARK    3  A    between atoms: C3_3  and  C4_4
REMARK    4  A    between atoms: C4_4  and  S1_5
REMARK    5  A    between atoms: S1_5  and  S2_6
REMARK    6  A    between atoms: S2_6  and  C5_7
REMARK    7  A    between atoms: C5_7  and  C6_8
REMARK                            x       y       z     vdW  Elec       q    Type
REMARK                         _______ _______ _______ _____ _____    ______ ____
ROOT
ATOM      1  C4  UNL     1       1.681  77.841 102.467  0.00  0.00    +0.000 C 
ENDROOT
BRANCH   1   4
ATOM      2  C1  UNL     1       0.410  80.833 104.564  0.00  0.00    +0.000 C 
ATOM      3  C2  UNL     1       0.981  80.029 103.433  0.00  0.00    +0.000 C 
ATOM      4  C3  UNL     1       1.127  78.704 103.564  0.00  0.00    +0.000 C 
BRANCH   3   5
ATOM      5  O1  UNL     1       1.344  80.661 102.244  0.00  0.00    +0.000 OA
ATOM      6  H12 UNL     1       0.829  81.457 101.888  0.00  0.00    +0.000 HD
ENDBRANCH   3   5
ENDBRANCH   1   4
BRANCH   1   7
ATOM      7  S1  UNL     1       3.491  77.670 102.621  0.00  0.00    +0.000 S 
BRANCH   7   8
ATOM      8  S2  UNL     1       3.801  77.300 100.537  0.00  0.00    +0.000 S 
BRANCH   8   9
ATOM      9  C5  UNL     1       4.689  75.731 100.804  0.00  0.00    +0.000 C 
BRANCH   9  10
ATOM     10  C6  UNL     1       4.702  74.925  99.537  0.00  0.00    +0.000 C 
ATOM     11  C7  UNL     1       5.731  74.964  98.685  0.00  0.00    +0.000 C 
ENDBRANCH   9  10
ENDBRANCH   8   9
ENDBRANCH   7   8
ENDBRANCH   1   7
TORSDOF 6
ENDMDL
MODEL 3
REMARK VINA RESULT:      -4.4      2.755      4.453
REMARK  Name = .\Allicin.pdb
REMARK  7 active torsions:
REMARK  status: ('A' for Active; 'I' for Inactive)
REMARK    1  A    between atoms: C1_1  and  C2_2
REMARK    2  A    between atoms: C2_2  and  O1_10
REMARK    3  A    between atoms: C3_3  and  C4_4
REMARK    4  A    between atoms: C4_4  and  S1_5
REMARK    5  A    between atoms: S1_5  and  S2_6
REMARK    6  A    between atoms: S2_6  and  C5_7
REMARK    7  A    between atoms: C5_7  and  C6_8
REMARK                            x       y       z     vdW  Elec       q    Type
REMARK                         _______ _______ _______ _____ _____    ______ ____
ROOT
ATOM      1  C4  UNL     1       1.296  77.890 102.653  0.00  0.00    +0.000 C 
ENDROOT
BRANCH   1   4
ATOM      2  C1  UNL     1       0.483  81.170 104.534  0.00  0.00    +0.000 C 
ATOM      3  C2  UNL     1       0.912  80.216 103.459  0.00  0.00    +0.000 C 
ATOM      4  C3  UNL     1       0.891  78.898 103.690  0.00  0.00    +0.000 C 
BRANCH   3   5
ATOM      5  O1  UNL     1       1.316  80.705 102.217  0.00  0.00    +0.000 OA
ATOM      6  H12 UNL     1       1.892  80.154 101.591  0.00  0.00    +0.000 HD
ENDBRANCH   3   5
ENDBRANCH   1   4
BRANCH   1   7
ATOM      7  S1  UNL     1       2.915  77.150 103.058  0.00  0.00    +0.000 S 
BRANCH   7   8
ATOM      8  S2  UNL     1       2.870  77.763 105.107  0.00  0.00    +0.000 S 
BRANCH   8   9
ATOM      9  C5  UNL     1       4.424  78.709 105.005  0.00  0.00    +0.000 C 
BRANCH   9  10
ATOM     10  C6  UNL     1       4.150  80.171 105.207  0.00  0.00    +0.000 C 
ATOM     11  C7  UNL     1       5.137  81.065 105.323  0.00  0.00    +0.000 C 
ENDBRANCH   9  10
ENDBRANCH   8   9
ENDBRANCH   7   8
ENDBRANCH   1   7
TORSDOF 6
ENDMDL
MODEL 4
REMARK VINA RESULT:      -4.3      2.918      3.226
REMARK  Name = .\Allicin.pdb
REMARK  7 active torsions:
REMARK  status: ('A' for Active; 'I' for Inactive)
REMARK    1  A    between atoms: C1_1  and  C2_2
REMARK    2  A    between atoms: C2_2  and  O1_10
REMARK    3  A    between atoms: C3_3  and  C4_4
REMARK    4  A    between atoms: C4_4  and  S1_5
REMARK    5  A    between atoms: S1_5  and  S2_6
REMARK    6  A    between atoms: S2_6  and  C5_7
REMARK    7  A    between atoms: C5_7  and  C6_8
REMARK                            x       y       z     vdW  Elec       q    Type
REMARK                         _______ _______ _______ _____ _____    ______ ____
ROOT
ATOM      1  C4  UNL     1       3.239  78.536 103.582  0.00  0.00    +0.000 C 
ENDROOT
BRANCH   1   4
ATOM      2  C1  UNL     1       0.099  76.285 103.749  0.00  0.00    +0.000 C 
ATOM      3  C2  UNL     1       1.150  77.223 103.235  0.00  0.00    +0.000 C 
ATOM      4  C3  UNL     1       2.149  77.609 104.038  0.00  0.00    +0.000 C 
BRANCH   3   5
ATOM      5  O1  UNL     1       1.093  77.678 101.917  0.00  0.00    +0.000 OA
ATOM      6  H12 UNL     1       0.735  78.598 101.689  0.00  0.00    +0.000 HD
ENDBRANCH   3   5
ENDBRANCH   1   4
BRANCH   1   7
ATOM      7  S1  UNL     1       3.732  79.675 104.920  0.00  0.00    +0.000 S 
BRANCH   7   8
ATOM      8  S2  UNL     1       1.910  79.440 106.017  0.00  0.00    +0.000 S 
BRANCH   8   9
ATOM      9  C5  UNL     1       1.319  81.129 105.671  0.00  0.00    +0.000 C 
BRANCH   9  10
ATOM     10  C6  UNL     1       0.186  81.087 104.687  0.00  0.00    +0.000 C 
ATOM     11  C7  UNL     1       0.394  80.935 103.375  0.00  0.00    +0.000 C 
ENDBRANCH   9  10
ENDBRANCH   8   9
ENDBRANCH   7   8
ENDBRANCH   1   7
TORSDOF 6
ENDMDL
MODEL 5
REMARK VINA RESULT:      -4.2      3.799      5.604
REMARK  Name = .\Allicin.pdb
REMARK  7 active torsions:
REMARK  status: ('A' for Active; 'I' for Inactive)
REMARK    1  A    between atoms: C1_1  and  C2_2
REMARK    2  A    between atoms: C2_2  and  O1_10
REMARK    3  A    between atoms: C3_3  and  C4_4
REMARK    4  A    between atoms: C4_4  and  S1_5
REMARK    5  A    between atoms: S1_5  and  S2_6
REMARK    6  A    between atoms: S2_6  and  C5_7
REMARK    7  A    between atoms: C5_7  and  C6_8
REMARK                            x       y       z     vdW  Elec       q    Type
REMARK                         _______ _______ _______ _____ _____    ______ ____
ROOT
ATOM      1  C4  UNL     1       2.140  79.673 103.733  0.00  0.00    +0.000 C 
ENDROOT
BRANCH   1   4
ATOM      2  C1  UNL     1      -0.333  82.048 105.522  0.00  0.00    +0.000 C 
ATOM      3  C2  UNL     1       0.437  80.816 105.147  0.00  0.00    +0.000 C 
ATOM      4  C3  UNL     1       1.329  80.866 104.150  0.00  0.00    +0.000 C 
BRANCH   3   5
ATOM      5  O1  UNL     1       0.232  79.627 105.847  0.00  0.00    +0.000 OA
ATOM      6  H12 UNL     1      -0.700  79.279 106.041  0.00  0.00    +0.000 HD
ENDBRANCH   3   5
ENDBRANCH   1   4
BRANCH   1   7
ATOM      7  S1  UNL     1       3.652  79.524 104.745  0.00  0.00    +0.000 S 
BRANCH   7   8
ATOM      8  S2  UNL     1       3.928  77.445 104.327  0.00  0.00    +0.000 S 
BRANCH   8   9
ATOM      9  C5  UNL     1       2.336  76.942 105.055  0.00  0.00    +0.000 C 
BRANCH   9  10
ATOM     10  C6  UNL     1       1.558  76.114 104.073  0.00  0.00    +0.000 C 
ATOM     11  C7  UNL     1       0.249  76.297 103.873  0.00  0.00    +0.000 C 
ENDBRANCH   9  10
ENDBRANCH   8   9
ENDBRANCH   7   8
ENDBRANCH   1   7
TORSDOF 6
ENDMDL
MODEL 6
REMARK VINA RESULT:      -4.1      2.146      2.875
REMARK  Name = .\Allicin.pdb
REMARK  7 active torsions:
REMARK  status: ('A' for Active; 'I' for Inactive)
REMARK    1  A    between atoms: C1_1  and  C2_2
REMARK    2  A    between atoms: C2_2  and  O1_10
REMARK    3  A    between atoms: C3_3  and  C4_4
REMARK    4  A    between atoms: C4_4  and  S1_5
REMARK    5  A    between atoms: S1_5  and  S2_6
REMARK    6  A    between atoms: S2_6  and  C5_7
REMARK    7  A    between atoms: C5_7  and  C6_8
REMARK                            x       y       z     vdW  Elec       q    Type
REMARK                         _______ _______ _______ _____ _____    ______ ____
ROOT
ATOM      1  C4  UNL     1       1.116  78.575 102.968  0.00  0.00    +0.000 C 
ENDROOT
BRANCH   1   4
ATOM      2  C1  UNL     1       4.115  77.220 100.936  0.00  0.00    +0.000 C 
ATOM      3  C2  UNL     1       2.720  77.620 101.319  0.00  0.00    +0.000 C 
ATOM      4  C3  UNL     1       2.485  78.144 102.528  0.00  0.00    +0.000 C 
BRANCH   3   5
ATOM      5  O1  UNL     1       1.676  77.460 100.408  0.00  0.00    +0.000 OA
ATOM      6  H12 UNL     1       1.269  76.550 100.222  0.00  0.00    +0.000 HD
ENDBRANCH   3   5
ENDBRANCH   1   4
BRANCH   1   7
ATOM      7  S1  UNL     1       1.144  80.284 103.609  0.00  0.00    +0.000 S 
BRANCH   7   8
ATOM      8  S2  UNL     1       1.197  79.691 105.663  0.00  0.00    +0.000 S 
BRANCH   8   9
ATOM      9  C5  UNL     1       2.599  80.776 106.086  0.00  0.00    +0.000 C 
BRANCH   9  10
ATOM     10  C6  UNL     1       3.781  80.452 105.219  0.00  0.00    +0.000 C 
ATOM     11  C7  UNL     1       4.974  81.025 105.407  0.00  0.00    +0.000 C 
ENDBRANCH   9  10
ENDBRANCH   8   9
ENDBRANCH   7   8
ENDBRANCH   1   7
TORSDOF 6
ENDMDL
MODEL 7
REMARK VINA RESULT:      -4.1      2.569      5.395
REMARK  Name = .\Allicin.pdb
REMARK  7 active torsions:
REMARK  status: ('A' for Active; 'I' for Inactive)
REMARK    1  A    between atoms: C1_1  and  C2_2
REMARK    2  A    between atoms: C2_2  and  O1_10
REMARK    3  A    between atoms: C3_3  and  C4_4
REMARK    4  A    between atoms: C4_4  and  S1_5
REMARK    5  A    between atoms: S1_5  and  S2_6
REMARK    6  A    between atoms: S2_6  and  C5_7
REMARK    7  A    between atoms: C5_7  and  C6_8
REMARK                            x       y       z     vdW  Elec       q    Type
REMARK                         _______ _______ _______ _____ _____    ______ ____
ROOT
ATOM      1  C4  UNL     1       1.451  78.036 103.165  0.00  0.00    +0.000 C 
ENDROOT
BRANCH   1   4
ATOM      2  C1  UNL     1       0.096  81.432 104.423  0.00  0.00    +0.000 C 
ATOM      3  C2  UNL     1       0.753  80.394 103.563  0.00  0.00    +0.000 C 
ATOM      4  C3  UNL     1       0.818  79.124 103.982  0.00  0.00    +0.000 C 
BRANCH   3   5
ATOM      5  O1  UNL     1       1.281  80.751 102.322  0.00  0.00    +0.000 OA
ATOM      6  H12 UNL     1       1.893  81.552 102.216  0.00  0.00    +0.000 HD
ENDBRANCH   3   5
ENDBRANCH   1   4
BRANCH   1   7
ATOM      7  S1  UNL     1       1.406  76.441 104.053  0.00  0.00    +0.000 S 
BRANCH   7   8
ATOM      8  S2  UNL     1       3.214  76.805 105.138  0.00  0.00    +0.000 S 
BRANCH   8   9
ATOM      9  C5  UNL     1       4.303  76.425 103.728  0.00  0.00    +0.000 C 
BRANCH   9  10
ATOM     10  C6  UNL     1       3.754  75.264 102.950  0.00  0.00    +0.000 C 
ATOM     11  C7  UNL     1       4.439  74.691 101.956  0.00  0.00    +0.000 C 
ENDBRANCH   9  10
ENDBRANCH   8   9
ENDBRANCH   7   8
ENDBRANCH   1   7
TORSDOF 6
ENDMDL
MODEL 8
REMARK VINA RESULT:      -4.1      4.334      5.658
REMARK  Name = .\Allicin.pdb
REMARK  7 active torsions:
REMARK  status: ('A' for Active; 'I' for Inactive)
REMARK    1  A    between atoms: C1_1  and  C2_2
REMARK    2  A    between atoms: C2_2  and  O1_10
REMARK    3  A    between atoms: C3_3  and  C4_4
REMARK    4  A    between atoms: C4_4  and  S1_5
REMARK    5  A    between atoms: S1_5  and  S2_6
REMARK    6  A    between atoms: S2_6  and  C5_7
REMARK    7  A    between atoms: C5_7  and  C6_8
REMARK                            x       y       z     vdW  Elec       q    Type
REMARK                         _______ _______ _______ _____ _____    ______ ____
ROOT
ATOM      1  C4  UNL     1       1.191  81.148 105.188  0.00  0.00    +0.000 C 
ENDROOT
BRANCH   1   4
ATOM      2  C1  UNL     1       0.642  78.183 102.766  0.00  0.00    +0.000 C 
ATOM      3  C2  UNL     1       0.961  79.553 103.287  0.00  0.00    +0.000 C 
ATOM      4  C3  UNL     1       0.874  79.803 104.600  0.00  0.00    +0.000 C 
BRANCH   3   5
ATOM      5  O1  UNL     1       1.362  80.557 102.407  0.00  0.00    +0.000 OA
ATOM      6  H12 UNL     1       0.793  80.824 101.611  0.00  0.00    +0.000 HD
ENDBRANCH   3   5
ENDBRANCH   1   4
BRANCH   1   7
ATOM      7  S1  UNL     1       1.690  80.996 106.937  0.00  0.00    +0.000 S 
BRANCH   7   8
ATOM      8  S2  UNL     1      -0.296  81.221 107.697  0.00  0.00    +0.000 S 
BRANCH   8   9
ATOM      9  C5  UNL     1       0.238  81.998 109.257  0.00  0.00    +0.000 C 
BRANCH   9  10
ATOM     10  C6  UNL     1      -0.194  81.158 110.425  0.00  0.00    +0.000 C 
ATOM     11  C7  UNL     1       0.222  81.410 111.669  0.00  0.00    +0.000 C 
ENDBRANCH   9  10
ENDBRANCH   8   9
ENDBRANCH   7   8
ENDBRANCH   1   7
TORSDOF 6
ENDMDL
MODEL 9
REMARK VINA RESULT:      -4.1      2.915      6.287
REMARK  Name = .\Allicin.pdb
REMARK  7 active torsions:
REMARK  status: ('A' for Active; 'I' for Inactive)
REMARK    1  A    between atoms: C1_1  and  C2_2
REMARK    2  A    between atoms: C2_2  and  O1_10
REMARK    3  A    between atoms: C3_3  and  C4_4
REMARK    4  A    between atoms: C4_4  and  S1_5
REMARK    5  A    between atoms: S1_5  and  S2_6
REMARK    6  A    between atoms: S2_6  and  C5_7
REMARK    7  A    between atoms: C5_7  and  C6_8
REMARK                            x       y       z     vdW  Elec       q    Type
REMARK                         _______ _______ _______ _____ _____    ______ ____
ROOT
ATOM      1  C4  UNL     1       3.983  77.472 101.596  0.00  0.00    +0.000 C 
ENDROOT
BRANCH   1   4
ATOM      2  C1  UNL     1       0.798  77.552 103.789  0.00  0.00    +0.000 C 
ATOM      3  C2  UNL     1       1.699  77.553 102.590  0.00  0.00    +0.000 C 
ATOM      4  C3  UNL     1       3.027  77.487 102.754  0.00  0.00    +0.000 C 
BRANCH   3   5
ATOM      5  O1  UNL     1       1.152  77.607 101.308  0.00  0.00    +0.000 OA
ATOM      6  H12 UNL     1       0.155  77.517 101.153  0.00  0.00    +0.000 HD
ENDBRANCH   3   5
ENDBRANCH   1   4
BRANCH   1   7
ATOM      7  S1  UNL     1       4.415  75.762 101.128  0.00  0.00    +0.000 S 
BRANCH   7   8
ATOM      8  S2  UNL     1       3.903  76.020  99.067  0.00  0.00    +0.000 S 
BRANCH   8   9
ATOM      9  C5  UNL     1       5.519  75.447  98.448  0.00  0.00    +0.000 C 
BRANCH   9  10
ATOM     10  C6  UNL     1       6.151  74.516  99.443  0.00  0.00    +0.000 C 
ATOM     11  C7  UNL     1       6.786  73.403  99.064  0.00  0.00    +0.000 C 
ENDBRANCH   9  10
ENDBRANCH   8   9
ENDBRANCH   7   8
ENDBRANCH   1   7
TORSDOF 6
ENDMDL
