MODEL 1
REMARK VINA RESULT:      -4.2      0.000      0.000
REMARK  Name = .\Allicin.pdb
REMARK  7 active torsions:
REMARK  status: ('A' for Active; 'I' for Inactive)
REMARK    1  A    between atoms: C1_1  and  C2_2
REMARK    2  A    between atoms: C2_2  and  O1_10
REMARK    3  A    between atoms: C3_3  and  C4_4
REMARK    4  A    between atoms: C4_4  and  S1_5
REMARK    5  A    between atoms: S1_5  and  S2_6
REMARK    6  A    between atoms: S2_6  and  C5_7
REMARK    7  A    between atoms: C5_7  and  C6_8
REMARK                            x       y       z     vdW  Elec       q    Type
REMARK                         _______ _______ _______ _____ _____    ______ ____
ROOT
ATOM      1  C4  UNL     1      -8.603  57.781  15.166  0.00  0.00    +0.000 C 
ENDROOT
BRANCH   1   4
ATOM      2  C1  UNL     1      -6.555  54.540  14.655  0.00  0.00    +0.000 C 
ATOM      3  C2  UNL     1      -7.278  55.825  14.376  0.00  0.00    +0.000 C 
ATOM      4  C3  UNL     1      -7.874  56.485  15.376  0.00  0.00    +0.000 C 
BRANCH   3   5
ATOM      5  O1  UNL     1      -7.312  56.336  13.078  0.00  0.00    +0.000 OA
ATOM      6  H12 UNL     1      -8.184  56.437  12.571  0.00  0.00    +0.000 HD
ENDBRANCH   3   5
ENDBRANCH   1   4
BRANCH   1   7
ATOM      7  S1  UNL     1      -7.471  59.202  15.338  0.00  0.00    +0.000 S 
BRANCH   7   8
ATOM      8  S2  UNL     1      -9.026  60.601  15.785  0.00  0.00    +0.000 S 
BRANCH   8   9
ATOM      9  C5  UNL     1      -7.956  61.687  16.783  0.00  0.00    +0.000 C 
BRANCH   9  10
ATOM     10  C6  UNL     1      -6.681  61.973  16.043  0.00  0.00    +0.000 C 
ATOM     11  C7  UNL     1      -6.244  63.220  15.842  0.00  0.00    +0.000 C 
ENDBRANCH   9  10
ENDBRANCH   8   9
ENDBRANCH   7   8
ENDBRANCH   1   7
TORSDOF 6
ENDMDL
MODEL 2
REMARK VINA RESULT:      -4.0      2.651      5.883
REMARK  Name = .\Allicin.pdb
REMARK  7 active torsions:
REMARK  status: ('A' for Active; 'I' for Inactive)
REMARK    1  A    between atoms: C1_1  and  C2_2
REMARK    2  A    between atoms: C2_2  and  O1_10
REMARK    3  A    between atoms: C3_3  and  C4_4
REMARK    4  A    between atoms: C4_4  and  S1_5
REMARK    5  A    between atoms: S1_5  and  S2_6
REMARK    6  A    between atoms: S2_6  and  C5_7
REMARK    7  A    between atoms: C5_7  and  C6_8
REMARK                            x       y       z     vdW  Elec       q    Type
REMARK                         _______ _______ _______ _____ _____    ______ ____
ROOT
ATOM      1  C4  UNL     1      -8.873  58.900  15.699  0.00  0.00    +0.000 C 
ENDROOT
BRANCH   1   4
ATOM      2  C1  UNL     1      -6.793  62.138  16.079  0.00  0.00    +0.000 C 
ATOM      3  C2  UNL     1      -7.822  61.073  16.317  0.00  0.00    +0.000 C 
ATOM      4  C3  UNL     1      -7.876  60.006  15.509  0.00  0.00    +0.000 C 
BRANCH   3   5
ATOM      5  O1  UNL     1      -8.710  61.189  17.386  0.00  0.00    +0.000 OA
ATOM      6  H12 UNL     1      -8.386  61.384  18.326  0.00  0.00    +0.000 HD
ENDBRANCH   3   5
ENDBRANCH   1   4
BRANCH   1   7
ATOM      7  S1  UNL     1      -8.033  57.306  15.995  0.00  0.00    +0.000 S 
BRANCH   7   8
ATOM      8  S2  UNL     1      -6.538  57.626  14.499  0.00  0.00    +0.000 S 
BRANCH   8   9
ATOM      9  C5  UNL     1      -5.586  56.134  14.931  0.00  0.00    +0.000 C 
BRANCH   9  10
ATOM     10  C6  UNL     1      -6.511  54.963  15.102  0.00  0.00    +0.000 C 
ATOM     11  C7  UNL     1      -6.822  54.153  14.086  0.00  0.00    +0.000 C 
ENDBRANCH   9  10
ENDBRANCH   8   9
ENDBRANCH   7   8
ENDBRANCH   1   7
TORSDOF 6
ENDMDL
MODEL 3
REMARK VINA RESULT:      -3.8      2.863      5.538
REMARK  Name = .\Allicin.pdb
REMARK  7 active torsions:
REMARK  status: ('A' for Active; 'I' for Inactive)
REMARK    1  A    between atoms: C1_1  and  C2_2
REMARK    2  A    between atoms: C2_2  and  O1_10
REMARK    3  A    between atoms: C3_3  and  C4_4
REMARK    4  A    between atoms: C4_4  and  S1_5
REMARK    5  A    between atoms: S1_5  and  S2_6
REMARK    6  A    between atoms: S2_6  and  C5_7
REMARK    7  A    between atoms: C5_7  and  C6_8
REMARK                            x       y       z     vdW  Elec       q    Type
REMARK                         _______ _______ _______ _____ _____    ______ ____
ROOT
ATOM      1  C4  UNL     1      -8.771  59.153  15.690  0.00  0.00    +0.000 C 
ENDROOT
BRANCH   1   4
ATOM      2  C1  UNL     1      -6.561  62.306  16.051  0.00  0.00    +0.000 C 
ATOM      3  C2  UNL     1      -7.614  61.270  16.312  0.00  0.00    +0.000 C 
ATOM      4  C3  UNL     1      -7.747  60.230  15.479  0.00  0.00    +0.000 C 
BRANCH   3   5
ATOM      5  O1  UNL     1      -8.440  61.384  17.430  0.00  0.00    +0.000 OA
ATOM      6  H12 UNL     1      -8.119  61.126  18.355  0.00  0.00    +0.000 HD
ENDBRANCH   3   5
ENDBRANCH   1   4
BRANCH   1   7
ATOM      7  S1  UNL     1      -8.019  57.678  16.459  0.00  0.00    +0.000 S 
BRANCH   7   8
ATOM      8  S2  UNL     1      -7.661  56.684  14.599  0.00  0.00    +0.000 S 
BRANCH   8   9
ATOM      9  C5  UNL     1      -5.894  57.127  14.541  0.00  0.00    +0.000 C 
BRANCH   9  10
ATOM     10  C6  UNL     1      -5.058  55.971  15.011  0.00  0.00    +0.000 C 
ATOM     11  C7  UNL     1      -3.776  56.121  15.356  0.00  0.00    +0.000 C 
ENDBRANCH   9  10
ENDBRANCH   8   9
ENDBRANCH   7   8
ENDBRANCH   1   7
TORSDOF 6
ENDMDL
MODEL 4
REMARK VINA RESULT:      -3.8      1.686      1.828
REMARK  Name = .\Allicin.pdb
REMARK  7 active torsions:
REMARK  status: ('A' for Active; 'I' for Inactive)
REMARK    1  A    between atoms: C1_1  and  C2_2
REMARK    2  A    between atoms: C2_2  and  O1_10
REMARK    3  A    between atoms: C3_3  and  C4_4
REMARK    4  A    between atoms: C4_4  and  S1_5
REMARK    5  A    between atoms: S1_5  and  S2_6
REMARK    6  A    between atoms: S2_6  and  C5_7
REMARK    7  A    between atoms: C5_7  and  C6_8
REMARK                            x       y       z     vdW  Elec       q    Type
REMARK                         _______ _______ _______ _____ _____    ______ ____
ROOT
ATOM      1  C4  UNL     1      -9.059  58.834  15.553  0.00  0.00    +0.000 C 
ENDROOT
BRANCH   1   4
ATOM      2  C1  UNL     1      -7.013  55.555  15.413  0.00  0.00    +0.000 C 
ATOM      3  C2  UNL     1      -7.598  56.847  15.903  0.00  0.00    +0.000 C 
ATOM      4  C3  UNL     1      -8.430  57.542  15.118  0.00  0.00    +0.000 C 
BRANCH   3   5
ATOM      5  O1  UNL     1      -7.285  57.312  17.180  0.00  0.00    +0.000 OA
ATOM      6  H12 UNL     1      -6.389  57.740  17.385  0.00  0.00    +0.000 HD
ENDBRANCH   3   5
ENDBRANCH   1   4
BRANCH   1   7
ATOM      7  S1  UNL     1      -7.955  60.247  15.206  0.00  0.00    +0.000 S 
BRANCH   7   8
ATOM      8  S2  UNL     1      -9.539  61.683  15.142  0.00  0.00    +0.000 S 
BRANCH   8   9
ATOM      9  C5  UNL     1      -8.514  63.051  15.774  0.00  0.00    +0.000 C 
BRANCH   9  10
ATOM     10  C6  UNL     1      -7.058  62.702  15.652  0.00  0.00    +0.000 C 
ATOM     11  C7  UNL     1      -6.094  63.574  15.962  0.00  0.00    +0.000 C 
ENDBRANCH   9  10
ENDBRANCH   8   9
ENDBRANCH   7   8
ENDBRANCH   1   7
TORSDOF 6
ENDMDL
MODEL 5
REMARK VINA RESULT:      -3.7      2.677      6.127
REMARK  Name = .\Allicin.pdb
REMARK  7 active torsions:
REMARK  status: ('A' for Active; 'I' for Inactive)
REMARK    1  A    between atoms: C1_1  and  C2_2
REMARK    2  A    between atoms: C2_2  and  O1_10
REMARK    3  A    between atoms: C3_3  and  C4_4
REMARK    4  A    between atoms: C4_4  and  S1_5
REMARK    5  A    between atoms: S1_5  and  S2_6
REMARK    6  A    between atoms: S2_6  and  C5_7
REMARK    7  A    between atoms: C5_7  and  C6_8
REMARK                            x       y       z     vdW  Elec       q    Type
REMARK                         _______ _______ _______ _____ _____    ______ ____
ROOT
ATOM      1  C4  UNL     1      -8.665  60.827  14.944  0.00  0.00    +0.000 C 
ENDROOT
BRANCH   1   4
ATOM      2  C1  UNL     1      -7.813  63.936  12.808  0.00  0.00    +0.000 C 
ATOM      3  C2  UNL     1      -8.355  62.600  13.221  0.00  0.00    +0.000 C 
ATOM      4  C3  UNL     1      -8.140  62.149  14.463  0.00  0.00    +0.000 C 
BRANCH   3   5
ATOM      5  O1  UNL     1      -9.094  61.839  12.316  0.00  0.00    +0.000 OA
ATOM      6  H12 UNL     1      -8.760  61.659  11.377  0.00  0.00    +0.000 HD
ENDBRANCH   3   5
ENDBRANCH   1   4
BRANCH   1   7
ATOM      7  S1  UNL     1      -7.297  59.704  15.391  0.00  0.00    +0.000 S 
BRANCH   7   8
ATOM      8  S2  UNL     1      -8.492  57.933  15.279  0.00  0.00    +0.000 S 
BRANCH   8   9
ATOM      9  C5  UNL     1      -7.066  56.799  15.324  0.00  0.00    +0.000 C 
BRANCH   9  10
ATOM     10  C6  UNL     1      -7.528  55.384  15.124  0.00  0.00    +0.000 C 
ATOM     11  C7  UNL     1      -7.031  54.609  14.155  0.00  0.00    +0.000 C 
ENDBRANCH   9  10
ENDBRANCH   8   9
ENDBRANCH   7   8
ENDBRANCH   1   7
TORSDOF 6
ENDMDL
MODEL 6
REMARK VINA RESULT:      -3.7      2.605      2.804
REMARK  Name = .\Allicin.pdb
REMARK  7 active torsions:
REMARK  status: ('A' for Active; 'I' for Inactive)
REMARK    1  A    between atoms: C1_1  and  C2_2
REMARK    2  A    between atoms: C2_2  and  O1_10
REMARK    3  A    between atoms: C3_3  and  C4_4
REMARK    4  A    between atoms: C4_4  and  S1_5
REMARK    5  A    between atoms: S1_5  and  S2_6
REMARK    6  A    between atoms: S2_6  and  C5_7
REMARK    7  A    between atoms: C5_7  and  C6_8
REMARK                            x       y       z     vdW  Elec       q    Type
REMARK                         _______ _______ _______ _____ _____    ______ ____
ROOT
ATOM      1  C4  UNL     1      -9.006  59.449  15.940  0.00  0.00    +0.000 C 
ENDROOT
BRANCH   1   4
ATOM      2  C1  UNL     1      -7.723  55.873  15.215  0.00  0.00    +0.000 C 
ATOM      3  C2  UNL     1      -7.924  57.205  15.874  0.00  0.00    +0.000 C 
ATOM      4  C3  UNL     1      -8.752  58.103  15.325  0.00  0.00    +0.000 C 
BRANCH   3   5
ATOM      5  O1  UNL     1      -7.260  57.500  17.065  0.00  0.00    +0.000 OA
ATOM      6  H12 UNL     1      -7.696  57.349  17.967  0.00  0.00    +0.000 HD
ENDBRANCH   3   5
ENDBRANCH   1   4
BRANCH   1   7
ATOM      7  S1  UNL     1      -7.836  60.693  15.295  0.00  0.00    +0.000 S 
BRANCH   7   8
ATOM      8  S2  UNL     1      -9.132  62.352  15.675  0.00  0.00    +0.000 S 
BRANCH   8   9
ATOM      9  C5  UNL     1      -9.798  62.400  13.980  0.00  0.00    +0.000 C 
BRANCH   9  10
ATOM     10  C6  UNL     1      -8.675  62.378  12.984  0.00  0.00    +0.000 C 
ATOM     11  C7  UNL     1      -8.214  63.494  12.412  0.00  0.00    +0.000 C 
ENDBRANCH   9  10
ENDBRANCH   8   9
ENDBRANCH   7   8
ENDBRANCH   1   7
TORSDOF 6
ENDMDL
MODEL 7
REMARK VINA RESULT:      -3.6      1.740      2.015
REMARK  Name = .\Allicin.pdb
REMARK  7 active torsions:
REMARK  status: ('A' for Active; 'I' for Inactive)
REMARK    1  A    between atoms: C1_1  and  C2_2
REMARK    2  A    between atoms: C2_2  and  O1_10
REMARK    3  A    between atoms: C3_3  and  C4_4
REMARK    4  A    between atoms: C4_4  and  S1_5
REMARK    5  A    between atoms: S1_5  and  S2_6
REMARK    6  A    between atoms: S2_6  and  C5_7
REMARK    7  A    between atoms: C5_7  and  C6_8
REMARK                            x       y       z     vdW  Elec       q    Type
REMARK                         _______ _______ _______ _____ _____    ______ ____
ROOT
ATOM      1  C4  UNL     1      -7.783  56.917  16.217  0.00  0.00    +0.000 C 
ENDROOT
BRANCH   1   4
ATOM      2  C1  UNL     1      -6.540  54.341  13.614  0.00  0.00    +0.000 C 
ATOM      3  C2  UNL     1      -6.630  55.574  14.463  0.00  0.00    +0.000 C 
ATOM      4  C3  UNL     1      -7.641  55.714  15.331  0.00  0.00    +0.000 C 
BRANCH   3   5
ATOM      5  O1  UNL     1      -5.655  56.565  14.357  0.00  0.00    +0.000 OA
ATOM      6  H12 UNL     1      -5.221  56.790  13.469  0.00  0.00    +0.000 HD
ENDBRANCH   3   5
ENDBRANCH   1   4
BRANCH   1   7
ATOM      7  S1  UNL     1      -8.745  58.229  15.388  0.00  0.00    +0.000 S 
BRANCH   7   8
ATOM      8  S2  UNL     1      -7.254  59.736  15.676  0.00  0.00    +0.000 S 
BRANCH   8   9
ATOM      9  C5  UNL     1      -8.457  61.097  15.825  0.00  0.00    +0.000 C 
BRANCH   9  10
ATOM     10  C6  UNL     1      -9.279  61.196  14.572  0.00  0.00    +0.000 C 
ATOM     11  C7  UNL     1      -9.033  62.116  13.635  0.00  0.00    +0.000 C 
ENDBRANCH   9  10
ENDBRANCH   8   9
ENDBRANCH   7   8
ENDBRANCH   1   7
TORSDOF 6
ENDMDL
MODEL 8
REMARK VINA RESULT:      -3.6      2.832      3.496
REMARK  Name = .\Allicin.pdb
REMARK  7 active torsions:
REMARK  status: ('A' for Active; 'I' for Inactive)
REMARK    1  A    between atoms: C1_1  and  C2_2
REMARK    2  A    between atoms: C2_2  and  O1_10
REMARK    3  A    between atoms: C3_3  and  C4_4
REMARK    4  A    between atoms: C4_4  and  S1_5
REMARK    5  A    between atoms: S1_5  and  S2_6
REMARK    6  A    between atoms: S2_6  and  C5_7
REMARK    7  A    between atoms: C5_7  and  C6_8
REMARK                            x       y       z     vdW  Elec       q    Type
REMARK                         _______ _______ _______ _____ _____    ______ ____
ROOT
ATOM      1  C4  UNL     1      -7.813  60.795  16.185  0.00  0.00    +0.000 C 
ENDROOT
BRANCH   1   4
ATOM      2  C1  UNL     1      -7.185  57.422  14.401  0.00  0.00    +0.000 C 
ATOM      3  C2  UNL     1      -7.380  58.445  15.480  0.00  0.00    +0.000 C 
ATOM      4  C3  UNL     1      -7.598  59.725  15.154  0.00  0.00    +0.000 C 
BRANCH   3   5
ATOM      5  O1  UNL     1      -7.350  58.057  16.820  0.00  0.00    +0.000 OA
ATOM      6  H12 UNL     1      -8.198  57.831  17.326  0.00  0.00    +0.000 HD
ENDBRANCH   3   5
ENDBRANCH   1   4
BRANCH   1   7
ATOM      7  S1  UNL     1      -6.644  62.177  15.948  0.00  0.00    +0.000 S 
BRANCH   7   8
ATOM      8  S2  UNL     1      -8.158  63.583  15.395  0.00  0.00    +0.000 S 
BRANCH   8   9
ATOM      9  C5  UNL     1      -7.305  64.119  13.877  0.00  0.00    +0.000 C 
BRANCH   9  10
ATOM     10  C6  UNL     1      -8.011  63.573  12.669  0.00  0.00    +0.000 C 
ATOM     11  C7  UNL     1      -8.840  62.528  12.747  0.00  0.00    +0.000 C 
ENDBRANCH   9  10
ENDBRANCH   8   9
ENDBRANCH   7   8
ENDBRANCH   1   7
TORSDOF 6
ENDMDL
MODEL 9
REMARK VINA RESULT:      -3.6      1.982      2.129
REMARK  Name = .\Allicin.pdb
REMARK  7 active torsions:
REMARK  status: ('A' for Active; 'I' for Inactive)
REMARK    1  A    between atoms: C1_1  and  C2_2
REMARK    2  A    between atoms: C2_2  and  O1_10
REMARK    3  A    between atoms: C3_3  and  C4_4
REMARK    4  A    between atoms: C4_4  and  S1_5
REMARK    5  A    between atoms: S1_5  and  S2_6
REMARK    6  A    between atoms: S2_6  and  C5_7
REMARK    7  A    between atoms: C5_7  and  C6_8
REMARK                            x       y       z     vdW  Elec       q    Type
REMARK                         _______ _______ _______ _____ _____    ______ ____
ROOT
ATOM      1  C4  UNL     1      -7.770  58.928  15.775  0.00  0.00    +0.000 C 
ENDROOT
BRANCH   1   4
ATOM      2  C1  UNL     1      -7.505  55.238  14.649  0.00  0.00    +0.000 C 
ATOM      3  C2  UNL     1      -7.401  56.734  14.653  0.00  0.00    +0.000 C 
ATOM      4  C3  UNL     1      -7.854  57.431  15.703  0.00  0.00    +0.000 C 
BRANCH   3   5
ATOM      5  O1  UNL     1      -6.819  57.394  13.571  0.00  0.00    +0.000 OA
ATOM      6  H12 UNL     1      -6.096  56.958  13.011  0.00  0.00    +0.000 HD
ENDBRANCH   3   5
ENDBRANCH   1   4
BRANCH   1   7
ATOM      7  S1  UNL     1      -9.417  59.687  15.567  0.00  0.00    +0.000 S 
BRANCH   7   8
ATOM      8  S2  UNL     1      -8.700  61.694  15.749  0.00  0.00    +0.000 S 
BRANCH   8   9
ATOM      9  C5  UNL     1      -8.545  61.952  13.952  0.00  0.00    +0.000 C 
BRANCH   9  10
ATOM     10  C6  UNL     1      -8.071  63.349  13.671  0.00  0.00    +0.000 C 
ATOM     11  C7  UNL     1      -7.907  63.803  12.425  0.00  0.00    +0.000 C 
ENDBRANCH   9  10
ENDBRANCH   8   9
ENDBRANCH   7   8
ENDBRANCH   1   7
TORSDOF 6
ENDMDL
