MODEL 1
REMARK VINA RESULT:      -5.1      0.000      0.000
REMARK  Name = .\Allicin.pdb
REMARK  7 active torsions:
REMARK  status: ('A' for Active; 'I' for Inactive)
REMARK    1  A    between atoms: C1_1  and  C2_2
REMARK    2  A    between atoms: C2_2  and  O1_10
REMARK    3  A    between atoms: C3_3  and  C4_4
REMARK    4  A    between atoms: C4_4  and  S1_5
REMARK    5  A    between atoms: S1_5  and  S2_6
REMARK    6  A    between atoms: S2_6  and  C5_7
REMARK    7  A    between atoms: C5_7  and  C6_8
REMARK                            x       y       z     vdW  Elec       q    Type
REMARK                         _______ _______ _______ _____ _____    ______ ____
ROOT
ATOM      1  C4  UNL     1       7.375  74.487  66.126  0.00  0.00    +0.000 C 
ENDROOT
BRANCH   1   4
ATOM      2  C1  UNL     1       7.787  70.642  66.033  0.00  0.00    +0.000 C 
ATOM      3  C2  UNL     1       7.345  72.034  65.689  0.00  0.00    +0.000 C 
ATOM      4  C3  UNL     1       7.770  73.069  66.424  0.00  0.00    +0.000 C 
BRANCH   3   5
ATOM      5  O1  UNL     1       6.507  72.247  64.596  0.00  0.00    +0.000 OA
ATOM      6  H12 UNL     1       5.583  72.648  64.706  0.00  0.00    +0.000 HD
ENDBRANCH   3   5
ENDBRANCH   1   4
BRANCH   1   7
ATOM      7  S1  UNL     1       8.558  75.266  64.974  0.00  0.00    +0.000 S 
BRANCH   7   8
ATOM      8  S2  UNL     1       8.281  77.236  65.759  0.00  0.00    +0.000 S 
BRANCH   8   9
ATOM      9  C5  UNL     1       6.812  76.791  66.741  0.00  0.00    +0.000 C 
BRANCH   9  10
ATOM     10  C6  UNL     1       6.646  77.751  67.884  0.00  0.00    +0.000 C 
ATOM     11  C7  UNL     1       6.594  79.073  67.695  0.00  0.00    +0.000 C 
ENDBRANCH   9  10
ENDBRANCH   8   9
ENDBRANCH   7   8
ENDBRANCH   1   7
TORSDOF 6
ENDMDL
MODEL 2
REMARK VINA RESULT:      -5.0      1.027      1.086
REMARK  Name = .\Allicin.pdb
REMARK  7 active torsions:
REMARK  status: ('A' for Active; 'I' for Inactive)
REMARK    1  A    between atoms: C1_1  and  C2_2
REMARK    2  A    between atoms: C2_2  and  O1_10
REMARK    3  A    between atoms: C3_3  and  C4_4
REMARK    4  A    between atoms: C4_4  and  S1_5
REMARK    5  A    between atoms: S1_5  and  S2_6
REMARK    6  A    between atoms: S2_6  and  C5_7
REMARK    7  A    between atoms: C5_7  and  C6_8
REMARK                            x       y       z     vdW  Elec       q    Type
REMARK                         _______ _______ _______ _____ _____    ______ ____
ROOT
ATOM      1  C4  UNL     1       8.215  74.524  65.569  0.00  0.00    +0.000 C 
ENDROOT
BRANCH   1   4
ATOM      2  C1  UNL     1       7.685  70.765  66.305  0.00  0.00    +0.000 C 
ATOM      3  C2  UNL     1       7.531  72.133  65.708  0.00  0.00    +0.000 C 
ATOM      4  C3  UNL     1       8.310  73.136  66.133  0.00  0.00    +0.000 C 
BRANCH   3   5
ATOM      5  O1  UNL     1       6.591  72.351  64.702  0.00  0.00    +0.000 OA
ATOM      6  H12 UNL     1       6.711  71.970  63.771  0.00  0.00    +0.000 HD
ENDBRANCH   3   5
ENDBRANCH   1   4
BRANCH   1   7
ATOM      7  S1  UNL     1       7.100  75.563  66.574  0.00  0.00    +0.000 S 
BRANCH   7   8
ATOM      8  S2  UNL     1       7.975  77.409  65.938  0.00  0.00    +0.000 S 
BRANCH   8   9
ATOM      9  C5  UNL     1       6.550  78.423  66.448  0.00  0.00    +0.000 C 
BRANCH   9  10
ATOM     10  C6  UNL     1       6.681  78.807  67.894  0.00  0.00    +0.000 C 
ATOM     11  C7  UNL     1       6.429  80.048  68.321  0.00  0.00    +0.000 C 
ENDBRANCH   9  10
ENDBRANCH   8   9
ENDBRANCH   7   8
ENDBRANCH   1   7
TORSDOF 6
ENDMDL
MODEL 3
REMARK VINA RESULT:      -4.6      2.044      5.610
REMARK  Name = .\Allicin.pdb
REMARK  7 active torsions:
REMARK  status: ('A' for Active; 'I' for Inactive)
REMARK    1  A    between atoms: C1_1  and  C2_2
REMARK    2  A    between atoms: C2_2  and  O1_10
REMARK    3  A    between atoms: C3_3  and  C4_4
REMARK    4  A    between atoms: C4_4  and  S1_5
REMARK    5  A    between atoms: S1_5  and  S2_6
REMARK    6  A    between atoms: S2_6  and  C5_7
REMARK    7  A    between atoms: C5_7  and  C6_8
REMARK                            x       y       z     vdW  Elec       q    Type
REMARK                         _______ _______ _______ _____ _____    ______ ____
ROOT
ATOM      1  C4  UNL     1       8.192  73.986  65.628  0.00  0.00    +0.000 C 
ENDROOT
BRANCH   1   4
ATOM      2  C1  UNL     1       6.551  77.162  67.104  0.00  0.00    +0.000 C 
ATOM      3  C2  UNL     1       6.797  75.729  66.735  0.00  0.00    +0.000 C 
ATOM      4  C3  UNL     1       7.881  75.401  66.020  0.00  0.00    +0.000 C 
BRANCH   3   5
ATOM      5  O1  UNL     1       5.905  74.740  67.150  0.00  0.00    +0.000 OA
ATOM      6  H12 UNL     1       4.938  74.738  66.849  0.00  0.00    +0.000 HD
ENDBRANCH   3   5
ENDBRANCH   1   4
BRANCH   1   7
ATOM      7  S1  UNL     1       8.122  73.779  63.816  0.00  0.00    +0.000 S 
BRANCH   7   8
ATOM      8  S2  UNL     1       8.089  71.642  63.893  0.00  0.00    +0.000 S 
BRANCH   8   9
ATOM      9  C5  UNL     1       8.181  71.566  65.711  0.00  0.00    +0.000 C 
BRANCH   9  10
ATOM     10  C6  UNL     1       7.637  70.254  66.200  0.00  0.00    +0.000 C 
ATOM     11  C7  UNL     1       7.958  69.094  65.619  0.00  0.00    +0.000 C 
ENDBRANCH   9  10
ENDBRANCH   8   9
ENDBRANCH   7   8
ENDBRANCH   1   7
TORSDOF 6
ENDMDL
MODEL 4
REMARK VINA RESULT:      -4.5      2.624      3.280
REMARK  Name = .\Allicin.pdb
REMARK  7 active torsions:
REMARK  status: ('A' for Active; 'I' for Inactive)
REMARK    1  A    between atoms: C1_1  and  C2_2
REMARK    2  A    between atoms: C2_2  and  O1_10
REMARK    3  A    between atoms: C3_3  and  C4_4
REMARK    4  A    between atoms: C4_4  and  S1_5
REMARK    5  A    between atoms: S1_5  and  S2_6
REMARK    6  A    between atoms: S2_6  and  C5_7
REMARK    7  A    between atoms: C5_7  and  C6_8
REMARK                            x       y       z     vdW  Elec       q    Type
REMARK                         _______ _______ _______ _____ _____    ______ ____
ROOT
ATOM      1  C4  UNL     1       8.196  74.564  65.197  0.00  0.00    +0.000 C 
ENDROOT
BRANCH   1   4
ATOM      2  C1  UNL     1      10.233  76.252  62.375  0.00  0.00    +0.000 C 
ATOM      3  C2  UNL     1       9.384  75.266  63.122  0.00  0.00    +0.000 C 
ATOM      4  C3  UNL     1       9.052  75.504  64.397  0.00  0.00    +0.000 C 
BRANCH   3   5
ATOM      5  O1  UNL     1       8.931  74.113  62.482  0.00  0.00    +0.000 OA
ATOM      6  H12 UNL     1       8.484  74.152  61.573  0.00  0.00    +0.000 HD
ENDBRANCH   3   5
ENDBRANCH   1   4
BRANCH   1   7
ATOM      7  S1  UNL     1       7.241  75.467  66.463  0.00  0.00    +0.000 S 
BRANCH   7   8
ATOM      8  S2  UNL     1       8.091  77.372  65.986  0.00  0.00    +0.000 S 
BRANCH   8   9
ATOM      9  C5  UNL     1       6.582  78.306  66.398  0.00  0.00    +0.000 C 
BRANCH   9  10
ATOM     10  C6  UNL     1       6.592  78.686  67.851  0.00  0.00    +0.000 C 
ATOM     11  C7  UNL     1       6.546  79.961  68.249  0.00  0.00    +0.000 C 
ENDBRANCH   9  10
ENDBRANCH   8   9
ENDBRANCH   7   8
ENDBRANCH   1   7
TORSDOF 6
ENDMDL
MODEL 5
REMARK VINA RESULT:      -4.4      2.318      5.997
REMARK  Name = .\Allicin.pdb
REMARK  7 active torsions:
REMARK  status: ('A' for Active; 'I' for Inactive)
REMARK    1  A    between atoms: C1_1  and  C2_2
REMARK    2  A    between atoms: C2_2  and  O1_10
REMARK    3  A    between atoms: C3_3  and  C4_4
REMARK    4  A    between atoms: C4_4  and  S1_5
REMARK    5  A    between atoms: S1_5  and  S2_6
REMARK    6  A    between atoms: S2_6  and  C5_7
REMARK    7  A    between atoms: C5_7  and  C6_8
REMARK                            x       y       z     vdW  Elec       q    Type
REMARK                         _______ _______ _______ _____ _____    ______ ____
ROOT
ATOM      1  C4  UNL     1       6.537  75.779  66.694  0.00  0.00    +0.000 C 
ENDROOT
BRANCH   1   4
ATOM      2  C1  UNL     1       6.894  79.440  67.887  0.00  0.00    +0.000 C 
ATOM      3  C2  UNL     1       6.635  78.248  67.015  0.00  0.00    +0.000 C 
ATOM      4  C3  UNL     1       6.791  77.013  67.510  0.00  0.00    +0.000 C 
BRANCH   3   5
ATOM      5  O1  UNL     1       6.219  78.428  65.696  0.00  0.00    +0.000 OA
ATOM      6  H12 UNL     1       5.381  77.984  65.339  0.00  0.00    +0.000 HD
ENDBRANCH   3   5
ENDBRANCH   1   4
BRANCH   1   7
ATOM      7  S1  UNL     1       8.035  75.283  65.776  0.00  0.00    +0.000 S 
BRANCH   7   8
ATOM      8  S2  UNL     1       7.918  73.230  66.364  0.00  0.00    +0.000 S 
BRANCH   8   9
ATOM      9  C5  UNL     1       7.556  72.623  64.685  0.00  0.00    +0.000 C 
BRANCH   9  10
ATOM     10  C6  UNL     1       7.530  71.121  64.674  0.00  0.00    +0.000 C 
ATOM     11  C7  UNL     1       8.225  70.396  65.555  0.00  0.00    +0.000 C 
ENDBRANCH   9  10
ENDBRANCH   8   9
ENDBRANCH   7   8
ENDBRANCH   1   7
TORSDOF 6
ENDMDL
MODEL 6
REMARK VINA RESULT:      -4.2      2.330      2.735
REMARK  Name = .\Allicin.pdb
REMARK  7 active torsions:
REMARK  status: ('A' for Active; 'I' for Inactive)
REMARK    1  A    between atoms: C1_1  and  C2_2
REMARK    2  A    between atoms: C2_2  and  O1_10
REMARK    3  A    between atoms: C3_3  and  C4_4
REMARK    4  A    between atoms: C4_4  and  S1_5
REMARK    5  A    between atoms: S1_5  and  S2_6
REMARK    6  A    between atoms: S2_6  and  C5_7
REMARK    7  A    between atoms: C5_7  and  C6_8
REMARK                            x       y       z     vdW  Elec       q    Type
REMARK                         _______ _______ _______ _____ _____    ______ ____
ROOT
ATOM      1  C4  UNL     1       7.295  74.085  66.148  0.00  0.00    +0.000 C 
ENDROOT
BRANCH   1   4
ATOM      2  C1  UNL     1       7.961  70.292  65.792  0.00  0.00    +0.000 C 
ATOM      3  C2  UNL     1       7.402  71.666  65.564  0.00  0.00    +0.000 C 
ATOM      4  C3  UNL     1       7.806  72.686  66.332  0.00  0.00    +0.000 C 
BRANCH   3   5
ATOM      5  O1  UNL     1       6.474  71.879  64.545  0.00  0.00    +0.000 OA
ATOM      6  H12 UNL     1       6.495  72.716  63.975  0.00  0.00    +0.000 HD
ENDBRANCH   3   5
ENDBRANCH   1   4
BRANCH   1   7
ATOM      7  S1  UNL     1       8.442  75.072  65.127  0.00  0.00    +0.000 S 
BRANCH   7   8
ATOM      8  S2  UNL     1       7.924  76.933  66.045  0.00  0.00    +0.000 S 
BRANCH   8   9
ATOM      9  C5  UNL     1       9.035  77.923  64.994  0.00  0.00    +0.000 C 
BRANCH   9  10
ATOM     10  C6  UNL     1       9.610  77.066  63.903  0.00  0.00    +0.000 C 
ATOM     11  C7  UNL     1      10.388  77.573  62.942  0.00  0.00    +0.000 C 
ENDBRANCH   9  10
ENDBRANCH   8   9
ENDBRANCH   7   8
ENDBRANCH   1   7
TORSDOF 6
ENDMDL
MODEL 7
REMARK VINA RESULT:      -4.1      2.084      2.913
REMARK  Name = .\Allicin.pdb
REMARK  7 active torsions:
REMARK  status: ('A' for Active; 'I' for Inactive)
REMARK    1  A    between atoms: C1_1  and  C2_2
REMARK    2  A    between atoms: C2_2  and  O1_10
REMARK    3  A    between atoms: C3_3  and  C4_4
REMARK    4  A    between atoms: C4_4  and  S1_5
REMARK    5  A    between atoms: S1_5  and  S2_6
REMARK    6  A    between atoms: S2_6  and  C5_7
REMARK    7  A    between atoms: C5_7  and  C6_8
REMARK                            x       y       z     vdW  Elec       q    Type
REMARK                         _______ _______ _______ _____ _____    ______ ____
ROOT
ATOM      1  C4  UNL     1       7.242  71.485  65.419  0.00  0.00    +0.000 C 
ENDROOT
BRANCH   1   4
ATOM      2  C1  UNL     1       8.575  67.856  65.306  0.00  0.00    +0.000 C 
ATOM      3  C2  UNL     1       7.733  69.052  65.639  0.00  0.00    +0.000 C 
ATOM      4  C3  UNL     1       8.050  70.251  65.135  0.00  0.00    +0.000 C 
BRANCH   3   5
ATOM      5  O1  UNL     1       6.613  68.909  66.458  0.00  0.00    +0.000 OA
ATOM      6  H12 UNL     1       6.697  68.609  67.423  0.00  0.00    +0.000 HD
ENDBRANCH   3   5
ENDBRANCH   1   4
BRANCH   1   7
ATOM      7  S1  UNL     1       7.898  72.921  64.502  0.00  0.00    +0.000 S 
BRANCH   7   8
ATOM      8  S2  UNL     1       7.624  74.291  66.122  0.00  0.00    +0.000 S 
BRANCH   8   9
ATOM      9  C5  UNL     1       8.358  75.704  65.236  0.00  0.00    +0.000 C 
BRANCH   9  10
ATOM     10  C6  UNL     1       8.169  76.965  66.030  0.00  0.00    +0.000 C 
ATOM     11  C7  UNL     1       7.499  76.978  67.186  0.00  0.00    +0.000 C 
ENDBRANCH   9  10
ENDBRANCH   8   9
ENDBRANCH   7   8
ENDBRANCH   1   7
TORSDOF 6
ENDMDL
MODEL 8
REMARK VINA RESULT:      -4.0      3.025      6.074
REMARK  Name = .\Allicin.pdb
REMARK  7 active torsions:
REMARK  status: ('A' for Active; 'I' for Inactive)
REMARK    1  A    between atoms: C1_1  and  C2_2
REMARK    2  A    between atoms: C2_2  and  O1_10
REMARK    3  A    between atoms: C3_3  and  C4_4
REMARK    4  A    between atoms: C4_4  and  S1_5
REMARK    5  A    between atoms: S1_5  and  S2_6
REMARK    6  A    between atoms: S2_6  and  C5_7
REMARK    7  A    between atoms: C5_7  and  C6_8
REMARK                            x       y       z     vdW  Elec       q    Type
REMARK                         _______ _______ _______ _____ _____    ______ ____
ROOT
ATOM      1  C4  UNL     1       7.653  74.715  65.371  0.00  0.00    +0.000 C 
ENDROOT
BRANCH   1   4
ATOM      2  C1  UNL     1      10.338  76.058  62.934  0.00  0.00    +0.000 C 
ATOM      3  C2  UNL     1       9.227  75.232  63.510  0.00  0.00    +0.000 C 
ATOM      4  C3  UNL     1       8.770  75.495  64.741  0.00  0.00    +0.000 C 
BRANCH   3   5
ATOM      5  O1  UNL     1       8.661  74.204  62.757  0.00  0.00    +0.000 OA
ATOM      6  H12 UNL     1       8.660  73.245  63.084  0.00  0.00    +0.000 HD
ENDBRANCH   3   5
ENDBRANCH   1   4
BRANCH   1   7
ATOM      7  S1  UNL     1       8.298  73.277  66.292  0.00  0.00    +0.000 S 
BRANCH   7   8
ATOM      8  S2  UNL     1       7.311  71.834  65.059  0.00  0.00    +0.000 S 
BRANCH   8   9
ATOM      9  C5  UNL     1       8.455  70.481  65.484  0.00  0.00    +0.000 C 
BRANCH   9  10
ATOM     10  C6  UNL     1       7.693  69.323  66.062  0.00  0.00    +0.000 C 
ATOM     11  C7  UNL     1       7.828  68.081  65.589  0.00  0.00    +0.000 C 
ENDBRANCH   9  10
ENDBRANCH   8   9
ENDBRANCH   7   8
ENDBRANCH   1   7
TORSDOF 6
ENDMDL
MODEL 9
REMARK VINA RESULT:      -4.0      3.867      4.593
REMARK  Name = .\Allicin.pdb
REMARK  7 active torsions:
REMARK  status: ('A' for Active; 'I' for Inactive)
REMARK    1  A    between atoms: C1_1  and  C2_2
REMARK    2  A    between atoms: C2_2  and  O1_10
REMARK    3  A    between atoms: C3_3  and  C4_4
REMARK    4  A    between atoms: C4_4  and  S1_5
REMARK    5  A    between atoms: S1_5  and  S2_6
REMARK    6  A    between atoms: S2_6  and  C5_7
REMARK    7  A    between atoms: C5_7  and  C6_8
REMARK                            x       y       z     vdW  Elec       q    Type
REMARK                         _______ _______ _______ _____ _____    ______ ____
ROOT
ATOM      1  C4  UNL     1       9.045  75.695  64.401  0.00  0.00    +0.000 C 
ENDROOT
BRANCH   1   4
ATOM      2  C1  UNL     1      11.086  77.182  61.472  0.00  0.00    +0.000 C 
ATOM      3  C2  UNL     1      10.246  77.076  62.710  0.00  0.00    +0.000 C 
ATOM      4  C3  UNL     1       9.875  75.871  63.162  0.00  0.00    +0.000 C 
BRANCH   3   5
ATOM      5  O1  UNL     1       9.867  78.230  63.395  0.00  0.00    +0.000 OA
ATOM      6  H12 UNL     1       9.179  78.870  63.016  0.00  0.00    +0.000 HD
ENDBRANCH   3   5
ENDBRANCH   1   4
BRANCH   1   7
ATOM      7  S1  UNL     1       8.165  74.096  64.376  0.00  0.00    +0.000 S 
BRANCH   7   8
ATOM      8  S2  UNL     1       7.251  74.379  66.289  0.00  0.00    +0.000 S 
BRANCH   8   9
ATOM      9  C5  UNL     1       7.583  76.170  66.339  0.00  0.00    +0.000 C 
BRANCH   9  10
ATOM     10  C6  UNL     1       6.496  76.875  67.099  0.00  0.00    +0.000 C 
ATOM     11  C7  UNL     1       6.723  78.006  67.774  0.00  0.00    +0.000 C 
ENDBRANCH   9  10
ENDBRANCH   8   9
ENDBRANCH   7   8
ENDBRANCH   1   7
TORSDOF 6
ENDMDL
