MODEL 1
REMARK VINA RESULT:      -3.2      0.000      0.000
REMARK  Name = .\Allicin.pdb
REMARK  7 active torsions:
REMARK  status: ('A' for Active; 'I' for Inactive)
REMARK    1  A    between atoms: C1_1  and  C2_2
REMARK    2  A    between atoms: C2_2  and  O1_10
REMARK    3  A    between atoms: C3_3  and  C4_4
REMARK    4  A    between atoms: C4_4  and  S1_5
REMARK    5  A    between atoms: S1_5  and  S2_6
REMARK    6  A    between atoms: S2_6  and  C5_7
REMARK    7  A    between atoms: C5_7  and  C6_8
REMARK                            x       y       z     vdW  Elec       q    Type
REMARK                         _______ _______ _______ _____ _____    ______ ____
ROOT
ATOM      1  C4  UNL     1      13.129  91.930  98.761  0.00  0.00    +0.000 C 
ENDROOT
BRANCH   1   4
ATOM      2  C1  UNL     1      16.417  93.567  97.553  0.00  0.00    +0.000 C 
ATOM      3  C2  UNL     1      15.316  92.569  97.753  0.00  0.00    +0.000 C 
ATOM      4  C3  UNL     1      14.269  92.879  98.529  0.00  0.00    +0.000 C 
BRANCH   3   5
ATOM      5  O1  UNL     1      15.377  91.329  97.119  0.00  0.00    +0.000 OA
ATOM      6  H12 UNL     1      16.254  90.945  96.786  0.00  0.00    +0.000 HD
ENDBRANCH   3   5
ENDBRANCH   1   4
BRANCH   1   7
ATOM      7  S1  UNL     1      12.530  92.036 100.482  0.00  0.00    +0.000 S 
BRANCH   7   8
ATOM      8  S2  UNL     1      14.379  91.390 101.342  0.00  0.00    +0.000 S 
BRANCH   8   9
ATOM      9  C5  UNL     1      14.189  89.660 100.802  0.00  0.00    +0.000 C 
BRANCH   9  10
ATOM     10  C6  UNL     1      15.426  89.206 100.082  0.00  0.00    +0.000 C 
ATOM     11  C7  UNL     1      15.370  88.376  99.036  0.00  0.00    +0.000 C 
ENDBRANCH   9  10
ENDBRANCH   8   9
ENDBRANCH   7   8
ENDBRANCH   1   7
TORSDOF 6
ENDMDL
MODEL 2
REMARK VINA RESULT:      -3.1      1.560      3.855
REMARK  Name = .\Allicin.pdb
REMARK  7 active torsions:
REMARK  status: ('A' for Active; 'I' for Inactive)
REMARK    1  A    between atoms: C1_1  and  C2_2
REMARK    2  A    between atoms: C2_2  and  O1_10
REMARK    3  A    between atoms: C3_3  and  C4_4
REMARK    4  A    between atoms: C4_4  and  S1_5
REMARK    5  A    between atoms: S1_5  and  S2_6
REMARK    6  A    between atoms: S2_6  and  C5_7
REMARK    7  A    between atoms: C5_7  and  C6_8
REMARK                            x       y       z     vdW  Elec       q    Type
REMARK                         _______ _______ _______ _____ _____    ______ ____
ROOT
ATOM      1  C4  UNL     1      13.480  91.025 100.295  0.00  0.00    +0.000 C 
ENDROOT
BRANCH   1   4
ATOM      2  C1  UNL     1      16.156  88.246 100.028  0.00  0.00    +0.000 C 
ATOM      3  C2  UNL     1      14.939  89.079  99.754  0.00  0.00    +0.000 C 
ATOM      4  C3  UNL     1      14.674  90.144 100.522  0.00  0.00    +0.000 C 
BRANCH   3   5
ATOM      5  O1  UNL     1      14.097  88.752  98.692  0.00  0.00    +0.000 OA
ATOM      6  H12 UNL     1      14.427  88.215  97.899  0.00  0.00    +0.000 HD
ENDBRANCH   3   5
ENDBRANCH   1   4
BRANCH   1   7
ATOM      7  S1  UNL     1      13.798  92.723 100.885  0.00  0.00    +0.000 S 
BRANCH   7   8
ATOM      8  S2  UNL     1      12.786  93.660  99.250  0.00  0.00    +0.000 S 
BRANCH   8   9
ATOM      9  C5  UNL     1      13.177  92.334  98.064  0.00  0.00    +0.000 C 
BRANCH   9  10
ATOM     10  C6  UNL     1      14.314  92.754  97.177  0.00  0.00    +0.000 C 
ATOM     11  C7  UNL     1      15.590  92.563  97.525  0.00  0.00    +0.000 C 
ENDBRANCH   9  10
ENDBRANCH   8   9
ENDBRANCH   7   8
ENDBRANCH   1   7
TORSDOF 6
ENDMDL
MODEL 3
REMARK VINA RESULT:      -3.1      1.967      3.356
REMARK  Name = .\Allicin.pdb
REMARK  7 active torsions:
REMARK  status: ('A' for Active; 'I' for Inactive)
REMARK    1  A    between atoms: C1_1  and  C2_2
REMARK    2  A    between atoms: C2_2  and  O1_10
REMARK    3  A    between atoms: C3_3  and  C4_4
REMARK    4  A    between atoms: C4_4  and  S1_5
REMARK    5  A    between atoms: S1_5  and  S2_6
REMARK    6  A    between atoms: S2_6  and  C5_7
REMARK    7  A    between atoms: C5_7  and  C6_8
REMARK                            x       y       z     vdW  Elec       q    Type
REMARK                         _______ _______ _______ _____ _____    ______ ____
ROOT
ATOM      1  C4  UNL     1      13.863  91.403  99.017  0.00  0.00    +0.000 C 
ENDROOT
BRANCH   1   4
ATOM      2  C1  UNL     1      16.114  88.478 100.173  0.00  0.00    +0.000 C 
ATOM      3  C2  UNL     1      15.023  89.250  99.491  0.00  0.00    +0.000 C 
ATOM      4  C3  UNL     1      14.924  90.572  99.679  0.00  0.00    +0.000 C 
BRANCH   3   5
ATOM      5  O1  UNL     1      14.125  88.591  98.651  0.00  0.00    +0.000 OA
ATOM      6  H12 UNL     1      13.287  88.150  99.011  0.00  0.00    +0.000 HD
ENDBRANCH   3   5
ENDBRANCH   1   4
BRANCH   1   7
ATOM      7  S1  UNL     1      12.644  91.999 100.237  0.00  0.00    +0.000 S 
BRANCH   7   8
ATOM      8  S2  UNL     1      14.093  92.322 101.777  0.00  0.00    +0.000 S 
BRANCH   8   9
ATOM      9  C5  UNL     1      13.119  91.479 103.065  0.00  0.00    +0.000 C 
BRANCH   9  10
ATOM     10  C6  UNL     1      12.491  90.235 102.505  0.00  0.00    +0.000 C 
ATOM     11  C7  UNL     1      12.983  89.019 102.759  0.00  0.00    +0.000 C 
ENDBRANCH   9  10
ENDBRANCH   8   9
ENDBRANCH   7   8
ENDBRANCH   1   7
TORSDOF 6
ENDMDL
MODEL 4
REMARK VINA RESULT:      -3.0      1.536      1.798
REMARK  Name = .\Allicin.pdb
REMARK  7 active torsions:
REMARK  status: ('A' for Active; 'I' for Inactive)
REMARK    1  A    between atoms: C1_1  and  C2_2
REMARK    2  A    between atoms: C2_2  and  O1_10
REMARK    3  A    between atoms: C3_3  and  C4_4
REMARK    4  A    between atoms: C4_4  and  S1_5
REMARK    5  A    between atoms: S1_5  and  S2_6
REMARK    6  A    between atoms: S2_6  and  C5_7
REMARK    7  A    between atoms: C5_7  and  C6_8
REMARK                            x       y       z     vdW  Elec       q    Type
REMARK                         _______ _______ _______ _____ _____    ______ ____
ROOT
ATOM      1  C4  UNL     1      12.434  92.605 100.663  0.00  0.00    +0.000 C 
ENDROOT
BRANCH   1   4
ATOM      2  C1  UNL     1      14.361  92.498  97.311  0.00  0.00    +0.000 C 
ATOM      3  C2  UNL     1      13.319  92.249  98.361  0.00  0.00    +0.000 C 
ATOM      4  C3  UNL     1      13.447  92.805  99.572  0.00  0.00    +0.000 C 
BRANCH   3   5
ATOM      5  O1  UNL     1      12.213  91.451  98.068  0.00  0.00    +0.000 OA
ATOM      6  H12 UNL     1      12.301  90.603  97.521  0.00  0.00    +0.000 HD
ENDBRANCH   3   5
ENDBRANCH   1   4
BRANCH   1   7
ATOM      7  S1  UNL     1      12.677  90.998 101.493  0.00  0.00    +0.000 S 
BRANCH   7   8
ATOM      8  S2  UNL     1      14.730  91.366 101.971  0.00  0.00    +0.000 S 
BRANCH   8   9
ATOM      9  C5  UNL     1      15.288  89.702 101.483  0.00  0.00    +0.000 C 
BRANCH   9  10
ATOM     10  C6  UNL     1      14.621  89.289 100.203  0.00  0.00    +0.000 C 
ATOM     11  C7  UNL     1      15.316  88.813  99.165  0.00  0.00    +0.000 C 
ENDBRANCH   9  10
ENDBRANCH   8   9
ENDBRANCH   7   8
ENDBRANCH   1   7
TORSDOF 6
ENDMDL
MODEL 5
REMARK VINA RESULT:      -2.9      1.752      2.069
REMARK  Name = .\Allicin.pdb
REMARK  7 active torsions:
REMARK  status: ('A' for Active; 'I' for Inactive)
REMARK    1  A    between atoms: C1_1  and  C2_2
REMARK    2  A    between atoms: C2_2  and  O1_10
REMARK    3  A    between atoms: C3_3  and  C4_4
REMARK    4  A    between atoms: C4_4  and  S1_5
REMARK    5  A    between atoms: S1_5  and  S2_6
REMARK    6  A    between atoms: S2_6  and  C5_7
REMARK    7  A    between atoms: C5_7  and  C6_8
REMARK                            x       y       z     vdW  Elec       q    Type
REMARK                         _______ _______ _______ _____ _____    ______ ____
ROOT
ATOM      1  C4  UNL     1      15.364  92.695  98.584  0.00  0.00    +0.000 C 
ENDROOT
BRANCH   1   4
ATOM      2  C1  UNL     1      13.431  94.869  96.036  0.00  0.00    +0.000 C 
ATOM      3  C2  UNL     1      13.939  93.677  96.791  0.00  0.00    +0.000 C 
ATOM      4  C3  UNL     1      14.825  93.844  97.782  0.00  0.00    +0.000 C 
BRANCH   3   5
ATOM      5  O1  UNL     1      13.478  92.401  96.470  0.00  0.00    +0.000 OA
ATOM      6  H12 UNL     1      13.150  91.760  97.183  0.00  0.00    +0.000 HD
ENDBRANCH   3   5
ENDBRANCH   1   4
BRANCH   1   7
ATOM      7  S1  UNL     1      15.062  92.944 100.367  0.00  0.00    +0.000 S 
BRANCH   7   8
ATOM      8  S2  UNL     1      13.317  91.708 100.415  0.00  0.00    +0.000 S 
BRANCH   8   9
ATOM      9  C5  UNL     1      13.982  90.481  99.243  0.00  0.00    +0.000 C 
BRANCH   9  10
ATOM     10  C6  UNL     1      14.678  89.380  99.989  0.00  0.00    +0.000 C 
ATOM     11  C7  UNL     1      15.509  88.528  99.379  0.00  0.00    +0.000 C 
ENDBRANCH   9  10
ENDBRANCH   8   9
ENDBRANCH   7   8
ENDBRANCH   1   7
TORSDOF 6
ENDMDL
MODEL 6
REMARK VINA RESULT:      -2.9      2.411      4.425
REMARK  Name = .\Allicin.pdb
REMARK  7 active torsions:
REMARK  status: ('A' for Active; 'I' for Inactive)
REMARK    1  A    between atoms: C1_1  and  C2_2
REMARK    2  A    between atoms: C2_2  and  O1_10
REMARK    3  A    between atoms: C3_3  and  C4_4
REMARK    4  A    between atoms: C4_4  and  S1_5
REMARK    5  A    between atoms: S1_5  and  S2_6
REMARK    6  A    between atoms: S2_6  and  C5_7
REMARK    7  A    between atoms: C5_7  and  C6_8
REMARK                            x       y       z     vdW  Elec       q    Type
REMARK                         _______ _______ _______ _____ _____    ______ ____
ROOT
ATOM      1  C4  UNL     1      15.349  91.314  98.076  0.00  0.00    +0.000 C 
ENDROOT
BRANCH   1   4
ATOM      2  C1  UNL     1      13.926  89.564 101.217  0.00  0.00    +0.000 C 
ATOM      3  C2  UNL     1      14.334  89.827  99.798  0.00  0.00    +0.000 C 
ATOM      4  C3  UNL     1      14.907  90.993  99.474  0.00  0.00    +0.000 C 
BRANCH   3   5
ATOM      5  O1  UNL     1      14.130  88.850  98.823  0.00  0.00    +0.000 OA
ATOM      6  H12 UNL     1      13.405  88.148  98.919  0.00  0.00    +0.000 HD
ENDBRANCH   3   5
ENDBRANCH   1   4
BRANCH   1   7
ATOM      7  S1  UNL     1      14.933  93.036  97.638  0.00  0.00    +0.000 S 
BRANCH   7   8
ATOM      8  S2  UNL     1      12.819  92.715  97.690  0.00  0.00    +0.000 S 
BRANCH   8   9
ATOM      9  C5  UNL     1      12.472  94.224  98.651  0.00  0.00    +0.000 C 
BRANCH   9  10
ATOM     10  C6  UNL     1      12.789  93.995 100.101  0.00  0.00    +0.000 C 
ATOM     11  C7  UNL     1      12.154  93.069 100.826  0.00  0.00    +0.000 C 
ENDBRANCH   9  10
ENDBRANCH   8   9
ENDBRANCH   7   8
ENDBRANCH   1   7
TORSDOF 6
ENDMDL
MODEL 7
REMARK VINA RESULT:      -2.6      1.855      2.509
REMARK  Name = .\Allicin.pdb
REMARK  7 active torsions:
REMARK  status: ('A' for Active; 'I' for Inactive)
REMARK    1  A    between atoms: C1_1  and  C2_2
REMARK    2  A    between atoms: C2_2  and  O1_10
REMARK    3  A    between atoms: C3_3  and  C4_4
REMARK    4  A    between atoms: C4_4  and  S1_5
REMARK    5  A    between atoms: S1_5  and  S2_6
REMARK    6  A    between atoms: S2_6  and  C5_7
REMARK    7  A    between atoms: C5_7  and  C6_8
REMARK                            x       y       z     vdW  Elec       q    Type
REMARK                         _______ _______ _______ _____ _____    ______ ____
ROOT
ATOM      1  C4  UNL     1      13.758  91.030  99.315  0.00  0.00    +0.000 C 
ENDROOT
BRANCH   1   4
ATOM      2  C1  UNL     1      16.306  93.637  98.022  0.00  0.00    +0.000 C 
ATOM      3  C2  UNL     1      15.370  92.466  98.070  0.00  0.00    +0.000 C 
ATOM      4  C3  UNL     1      14.717  92.180  99.204  0.00  0.00    +0.000 C 
BRANCH   3   5
ATOM      5  O1  UNL     1      15.170  91.688  96.930  0.00  0.00    +0.000 OA
ATOM      6  H12 UNL     1      14.244  91.388  96.648  0.00  0.00    +0.000 HD
ENDBRANCH   3   5
ENDBRANCH   1   4
BRANCH   1   7
ATOM      7  S1  UNL     1      14.506  89.642 100.236  0.00  0.00    +0.000 S 
BRANCH   7   8
ATOM      8  S2  UNL     1      14.915  90.805 101.984  0.00  0.00    +0.000 S 
BRANCH   8   9
ATOM      9  C5  UNL     1      13.246  90.596 102.686  0.00  0.00    +0.000 C 
BRANCH   9  10
ATOM     10  C6  UNL     1      12.820  89.160 102.583  0.00  0.00    +0.000 C 
ATOM     11  C7  UNL     1      12.258  88.515 103.610  0.00  0.00    +0.000 C 
ENDBRANCH   9  10
ENDBRANCH   8   9
ENDBRANCH   7   8
ENDBRANCH   1   7
TORSDOF 6
ENDMDL
MODEL 8
REMARK VINA RESULT:      -2.6      2.630      4.602
REMARK  Name = .\Allicin.pdb
REMARK  7 active torsions:
REMARK  status: ('A' for Active; 'I' for Inactive)
REMARK    1  A    between atoms: C1_1  and  C2_2
REMARK    2  A    between atoms: C2_2  and  O1_10
REMARK    3  A    between atoms: C3_3  and  C4_4
REMARK    4  A    between atoms: C4_4  and  S1_5
REMARK    5  A    between atoms: S1_5  and  S2_6
REMARK    6  A    between atoms: S2_6  and  C5_7
REMARK    7  A    between atoms: C5_7  and  C6_8
REMARK                            x       y       z     vdW  Elec       q    Type
REMARK                         _______ _______ _______ _____ _____    ______ ____
ROOT
ATOM      1  C4  UNL     1      14.236  91.869  99.761  0.00  0.00    +0.000 C 
ENDROOT
BRANCH   1   4
ATOM      2  C1  UNL     1      15.485  88.275  99.069  0.00  0.00    +0.000 C 
ATOM      3  C2  UNL     1      14.758  89.434  99.684  0.00  0.00    +0.000 C 
ATOM      4  C3  UNL     1      14.942  90.669  99.199  0.00  0.00    +0.000 C 
BRANCH   3   5
ATOM      5  O1  UNL     1      13.882  89.221 100.748  0.00  0.00    +0.000 OA
ATOM      6  H12 UNL     1      13.434  88.323 100.895  0.00  0.00    +0.000 HD
ENDBRANCH   3   5
ENDBRANCH   1   4
BRANCH   1   7
ATOM      7  S1  UNL     1      15.205  93.389  99.477  0.00  0.00    +0.000 S 
BRANCH   7   8
ATOM      8  S2  UNL     1      14.911  93.381  97.358  0.00  0.00    +0.000 S 
BRANCH   8   9
ATOM      9  C5  UNL     1      13.411  94.414  97.420  0.00  0.00    +0.000 C 
BRANCH   9  10
ATOM     10  C6  UNL     1      12.289  93.738  96.687  0.00  0.00    +0.000 C 
ATOM     11  C7  UNL     1      12.138  92.410  96.695  0.00  0.00    +0.000 C 
ENDBRANCH   9  10
ENDBRANCH   8   9
ENDBRANCH   7   8
ENDBRANCH   1   7
TORSDOF 6
ENDMDL
MODEL 9
REMARK VINA RESULT:      -2.6      2.800      4.903
REMARK  Name = .\Allicin.pdb
REMARK  7 active torsions:
REMARK  status: ('A' for Active; 'I' for Inactive)
REMARK    1  A    between atoms: C1_1  and  C2_2
REMARK    2  A    between atoms: C2_2  and  O1_10
REMARK    3  A    between atoms: C3_3  and  C4_4
REMARK    4  A    between atoms: C4_4  and  S1_5
REMARK    5  A    between atoms: S1_5  and  S2_6
REMARK    6  A    between atoms: S2_6  and  C5_7
REMARK    7  A    between atoms: C5_7  and  C6_8
REMARK                            x       y       z     vdW  Elec       q    Type
REMARK                         _______ _______ _______ _____ _____    ______ ____
ROOT
ATOM      1  C4  UNL     1      15.390  89.410 101.230  0.00  0.00    +0.000 C 
ENDROOT
BRANCH   1   4
ATOM      2  C1  UNL     1      18.168  87.763 103.358  0.00  0.00    +0.000 C 
ATOM      3  C2  UNL     1      17.348  88.196 102.179  0.00  0.00    +0.000 C 
ATOM      4  C3  UNL     1      16.247  88.935 102.367  0.00  0.00    +0.000 C 
BRANCH   3   5
ATOM      5  O1  UNL     1      17.742  87.841 100.889  0.00  0.00    +0.000 OA
ATOM      6  H12 UNL     1      17.065  87.668 100.155  0.00  0.00    +0.000 HD
ENDBRANCH   3   5
ENDBRANCH   1   4
BRANCH   1   7
ATOM      7  S1  UNL     1      13.692  89.769 101.797  0.00  0.00    +0.000 S 
BRANCH   7   8
ATOM      8  S2  UNL     1      13.347  91.292 100.335  0.00  0.00    +0.000 S 
BRANCH   8   9
ATOM      9  C5  UNL     1      14.710  90.757  99.250  0.00  0.00    +0.000 C 
BRANCH   9  10
ATOM     10  C6  UNL     1      15.291  91.940  98.531  0.00  0.00    +0.000 C 
ATOM     11  C7  UNL     1      14.766  92.403  97.392  0.00  0.00    +0.000 C 
ENDBRANCH   9  10
ENDBRANCH   8   9
ENDBRANCH   7   8
ENDBRANCH   1   7
TORSDOF 6
ENDMDL
