MODEL 1
REMARK VINA RESULT:      -3.3      0.000      0.000
REMARK  Name = .\Allicin.pdb
REMARK  7 active torsions:
REMARK  status: ('A' for Active; 'I' for Inactive)
REMARK    1  A    between atoms: C1_1  and  C2_2
REMARK    2  A    between atoms: C2_2  and  O1_10
REMARK    3  A    between atoms: C3_3  and  C4_4
REMARK    4  A    between atoms: C4_4  and  S1_5
REMARK    5  A    between atoms: S1_5  and  S2_6
REMARK    6  A    between atoms: S2_6  and  C5_7
REMARK    7  A    between atoms: C5_7  and  C6_8
REMARK                            x       y       z     vdW  Elec       q    Type
REMARK                         _______ _______ _______ _____ _____    ______ ____
ROOT
ATOM      1  C4  UNL     1      -9.505  96.484 123.015  0.00  0.00    +0.000 C 
ENDROOT
BRANCH   1   4
ATOM      2  C1  UNL     1      -9.039  95.091 126.593  0.00  0.00    +0.000 C 
ATOM      3  C2  UNL     1      -9.176  95.161 125.101  0.00  0.00    +0.000 C 
ATOM      4  C3  UNL     1      -9.372  96.344 124.504  0.00  0.00    +0.000 C 
BRANCH   3   5
ATOM      5  O1  UNL     1      -9.084  93.997 124.338  0.00  0.00    +0.000 OA
ATOM      6  H12 UNL     1      -9.286  93.086 124.733  0.00  0.00    +0.000 HD
ENDBRANCH   3   5
ENDBRANCH   1   4
BRANCH   1   7
ATOM      7  S1  UNL     1      -8.924  98.123 122.459  0.00  0.00    +0.000 S 
BRANCH   7   8
ATOM      8  S2  UNL     1      -9.112  99.030 124.387  0.00  0.00    +0.000 S 
BRANCH   8   9
ATOM      9  C5  UNL     1      -7.318  99.257 124.610  0.00  0.00    +0.000 C 
BRANCH   9  10
ATOM     10  C6  UNL     1      -6.906  98.792 125.978  0.00  0.00    +0.000 C 
ATOM     11  C7  UNL     1      -7.764  98.763 127.003  0.00  0.00    +0.000 C 
ENDBRANCH   9  10
ENDBRANCH   8   9
ENDBRANCH   7   8
ENDBRANCH   1   7
TORSDOF 6
ENDMDL
MODEL 2
REMARK VINA RESULT:      -3.0      1.562      1.633
REMARK  Name = .\Allicin.pdb
REMARK  7 active torsions:
REMARK  status: ('A' for Active; 'I' for Inactive)
REMARK    1  A    between atoms: C1_1  and  C2_2
REMARK    2  A    between atoms: C2_2  and  O1_10
REMARK    3  A    between atoms: C3_3  and  C4_4
REMARK    4  A    between atoms: C4_4  and  S1_5
REMARK    5  A    between atoms: S1_5  and  S2_6
REMARK    6  A    between atoms: S2_6  and  C5_7
REMARK    7  A    between atoms: C5_7  and  C6_8
REMARK                            x       y       z     vdW  Elec       q    Type
REMARK                         _______ _______ _______ _____ _____    ______ ____
ROOT
ATOM      1  C4  UNL     1      -9.858  96.823 122.904  0.00  0.00    +0.000 C 
ENDROOT
BRANCH   1   4
ATOM      2  C1  UNL     1      -8.969  95.083 126.241  0.00  0.00    +0.000 C 
ATOM      3  C2  UNL     1      -8.840  95.857 124.963  0.00  0.00    +0.000 C 
ATOM      4  C3  UNL     1      -9.916  96.048 124.188  0.00  0.00    +0.000 C 
BRANCH   3   5
ATOM      5  O1  UNL     1      -7.605  96.388 124.592  0.00  0.00    +0.000 OA
ATOM      6  H12 UNL     1      -7.447  96.766 123.666  0.00  0.00    +0.000 HD
ENDBRANCH   3   5
ENDBRANCH   1   4
BRANCH   1   7
ATOM      7  S1  UNL     1     -10.850  98.351 123.017  0.00  0.00    +0.000 S 
BRANCH   7   8
ATOM      8  S2  UNL     1      -9.241  99.538 123.776  0.00  0.00    +0.000 S 
BRANCH   8   9
ATOM      9  C5  UNL     1      -9.849  99.516 125.494  0.00  0.00    +0.000 C 
BRANCH   9  10
ATOM     10  C6  UNL     1      -8.708  99.283 126.442  0.00  0.00    +0.000 C 
ATOM     11  C7  UNL     1      -8.859  98.589 127.573  0.00  0.00    +0.000 C 
ENDBRANCH   9  10
ENDBRANCH   8   9
ENDBRANCH   7   8
ENDBRANCH   1   7
TORSDOF 6
ENDMDL
MODEL 3
REMARK VINA RESULT:      -3.0      2.274      3.664
REMARK  Name = .\Allicin.pdb
REMARK  7 active torsions:
REMARK  status: ('A' for Active; 'I' for Inactive)
REMARK    1  A    between atoms: C1_1  and  C2_2
REMARK    2  A    between atoms: C2_2  and  O1_10
REMARK    3  A    between atoms: C3_3  and  C4_4
REMARK    4  A    between atoms: C4_4  and  S1_5
REMARK    5  A    between atoms: S1_5  and  S2_6
REMARK    6  A    between atoms: S2_6  and  C5_7
REMARK    7  A    between atoms: C5_7  and  C6_8
REMARK                            x       y       z     vdW  Elec       q    Type
REMARK                         _______ _______ _______ _____ _____    ______ ____
ROOT
ATOM      1  C4  UNL     1      -8.721  97.892 123.119  0.00  0.00    +0.000 C 
ENDROOT
BRANCH   1   4
ATOM      2  C1  UNL     1     -12.467  98.808 122.823  0.00  0.00    +0.000 C 
ATOM      3  C2  UNL     1     -11.207  98.060 123.145  0.00  0.00    +0.000 C 
ATOM      4  C3  UNL     1     -10.019  98.583 122.815  0.00  0.00    +0.000 C 
BRANCH   3   5
ATOM      5  O1  UNL     1     -11.275  96.831 123.800  0.00  0.00    +0.000 OA
ATOM      6  H12 UNL     1     -10.566  96.119 123.669  0.00  0.00    +0.000 HD
ENDBRANCH   3   5
ENDBRANCH   1   4
BRANCH   1   7
ATOM      7  S1  UNL     1      -7.727  98.860 124.305  0.00  0.00    +0.000 S 
BRANCH   7   8
ATOM      8  S2  UNL     1      -8.419  97.784 126.019  0.00  0.00    +0.000 S 
BRANCH   8   9
ATOM      9  C5  UNL     1      -8.276  96.150 125.226  0.00  0.00    +0.000 C 
BRANCH   9  10
ATOM     10  C6  UNL     1      -9.071  95.133 125.994  0.00  0.00    +0.000 C 
ATOM     11  C7  UNL     1      -9.159  95.165 127.327  0.00  0.00    +0.000 C 
ENDBRANCH   9  10
ENDBRANCH   8   9
ENDBRANCH   7   8
ENDBRANCH   1   7
TORSDOF 6
ENDMDL
MODEL 4
REMARK VINA RESULT:      -3.0      2.072      3.737
REMARK  Name = .\Allicin.pdb
REMARK  7 active torsions:
REMARK  status: ('A' for Active; 'I' for Inactive)
REMARK    1  A    between atoms: C1_1  and  C2_2
REMARK    2  A    between atoms: C2_2  and  O1_10
REMARK    3  A    between atoms: C3_3  and  C4_4
REMARK    4  A    between atoms: C4_4  and  S1_5
REMARK    5  A    between atoms: S1_5  and  S2_6
REMARK    6  A    between atoms: S2_6  and  C5_7
REMARK    7  A    between atoms: C5_7  and  C6_8
REMARK                            x       y       z     vdW  Elec       q    Type
REMARK                         _______ _______ _______ _____ _____    ______ ____
ROOT
ATOM      1  C4  UNL     1      -9.162  99.497 123.790  0.00  0.00    +0.000 C 
ENDROOT
BRANCH   1   4
ATOM      2  C1  UNL     1      -7.493  99.040 127.248  0.00  0.00    +0.000 C 
ATOM      3  C2  UNL     1      -8.535  99.131 126.173  0.00  0.00    +0.000 C 
ATOM      4  C3  UNL     1      -8.171  99.404 124.914  0.00  0.00    +0.000 C 
BRANCH   3   5
ATOM      5  O1  UNL     1      -9.877  98.916 126.485  0.00  0.00    +0.000 OA
ATOM      6  H12 UNL     1     -10.369  99.506 127.146  0.00  0.00    +0.000 HD
ENDBRANCH   3   5
ENDBRANCH   1   4
BRANCH   1   7
ATOM      7  S1  UNL     1      -8.922  98.141 122.592  0.00  0.00    +0.000 S 
BRANCH   7   8
ATOM      8  S2  UNL     1     -10.403  96.874 123.475  0.00  0.00    +0.000 S 
BRANCH   8   9
ATOM      9  C5  UNL     1      -9.249  95.496 123.773  0.00  0.00    +0.000 C 
BRANCH   9  10
ATOM     10  C6  UNL     1      -8.545  95.688 125.086  0.00  0.00    +0.000 C 
ATOM     11  C7  UNL     1      -9.038  95.206 126.230  0.00  0.00    +0.000 C 
ENDBRANCH   9  10
ENDBRANCH   8   9
ENDBRANCH   7   8
ENDBRANCH   1   7
TORSDOF 6
ENDMDL
MODEL 5
REMARK VINA RESULT:      -2.9      1.706      2.916
REMARK  Name = .\Allicin.pdb
REMARK  7 active torsions:
REMARK  status: ('A' for Active; 'I' for Inactive)
REMARK    1  A    between atoms: C1_1  and  C2_2
REMARK    2  A    between atoms: C2_2  and  O1_10
REMARK    3  A    between atoms: C3_3  and  C4_4
REMARK    4  A    between atoms: C4_4  and  S1_5
REMARK    5  A    between atoms: S1_5  and  S2_6
REMARK    6  A    between atoms: S2_6  and  C5_7
REMARK    7  A    between atoms: C5_7  and  C6_8
REMARK                            x       y       z     vdW  Elec       q    Type
REMARK                         _______ _______ _______ _____ _____    ______ ____
ROOT
ATOM      1  C4  UNL     1      -8.092  96.975 124.484  0.00  0.00    +0.000 C 
ENDROOT
BRANCH   1   4
ATOM      2  C1  UNL     1      -9.256  95.156 127.692  0.00  0.00    +0.000 C 
ATOM      3  C2  UNL     1      -8.866  95.417 126.267  0.00  0.00    +0.000 C 
ATOM      4  C3  UNL     1      -8.505  96.650 125.890  0.00  0.00    +0.000 C 
BRANCH   3   5
ATOM      5  O1  UNL     1      -8.865  94.372 125.344  0.00  0.00    +0.000 OA
ATOM      6  H12 UNL     1      -8.131  93.673 125.333  0.00  0.00    +0.000 HD
ENDBRANCH   3   5
ENDBRANCH   1   4
BRANCH   1   7
ATOM      7  S1  UNL     1      -7.675  98.744 124.317  0.00  0.00    +0.000 S 
BRANCH   7   8
ATOM      8  S2  UNL     1      -8.664  98.971 122.434  0.00  0.00    +0.000 S 
BRANCH   8   9
ATOM      9  C5  UNL     1      -9.860  97.631 122.740  0.00  0.00    +0.000 C 
BRANCH   9  10
ATOM     10  C6  UNL     1     -11.236  98.201 122.926  0.00  0.00    +0.000 C 
ATOM     11  C7  UNL     1     -11.557  98.941 123.992  0.00  0.00    +0.000 C 
ENDBRANCH   9  10
ENDBRANCH   8   9
ENDBRANCH   7   8
ENDBRANCH   1   7
TORSDOF 6
ENDMDL
MODEL 6
REMARK VINA RESULT:      -2.9      1.969      2.733
REMARK  Name = .\Allicin.pdb
REMARK  7 active torsions:
REMARK  status: ('A' for Active; 'I' for Inactive)
REMARK    1  A    between atoms: C1_1  and  C2_2
REMARK    2  A    between atoms: C2_2  and  O1_10
REMARK    3  A    between atoms: C3_3  and  C4_4
REMARK    4  A    between atoms: C4_4  and  S1_5
REMARK    5  A    between atoms: S1_5  and  S2_6
REMARK    6  A    between atoms: S2_6  and  C5_7
REMARK    7  A    between atoms: C5_7  and  C6_8
REMARK                            x       y       z     vdW  Elec       q    Type
REMARK                         _______ _______ _______ _____ _____    ______ ____
ROOT
ATOM      1  C4  UNL     1      -8.236  96.939 124.256  0.00  0.00    +0.000 C 
ENDROOT
BRANCH   1   4
ATOM      2  C1  UNL     1      -9.187  95.224 127.589  0.00  0.00    +0.000 C 
ATOM      3  C2  UNL     1      -8.868  95.435 126.138  0.00  0.00    +0.000 C 
ATOM      4  C3  UNL     1      -8.575  96.663 125.692  0.00  0.00    +0.000 C 
BRANCH   3   5
ATOM      5  O1  UNL     1      -8.863  94.350 125.262  0.00  0.00    +0.000 OA
ATOM      6  H12 UNL     1      -8.734  94.474 124.265  0.00  0.00    +0.000 HD
ENDBRANCH   3   5
ENDBRANCH   1   4
BRANCH   1   7
ATOM      7  S1  UNL     1      -9.734  97.349 123.297  0.00  0.00    +0.000 S 
BRANCH   7   8
ATOM      8  S2  UNL     1      -9.091  99.333 122.822  0.00  0.00    +0.000 S 
BRANCH   8   9
ATOM      9  C5  UNL     1      -8.378  98.867 121.211  0.00  0.00    +0.000 C 
BRANCH   9  10
ATOM     10  C6  UNL     1      -6.923  99.235 121.167  0.00  0.00    +0.000 C 
ATOM     11  C7  UNL     1      -6.214  99.454 122.279  0.00  0.00    +0.000 C 
ENDBRANCH   9  10
ENDBRANCH   8   9
ENDBRANCH   7   8
ENDBRANCH   1   7
TORSDOF 6
ENDMDL
MODEL 7
REMARK VINA RESULT:      -2.8      2.390      3.299
REMARK  Name = .\Allicin.pdb
REMARK  7 active torsions:
REMARK  status: ('A' for Active; 'I' for Inactive)
REMARK    1  A    between atoms: C1_1  and  C2_2
REMARK    2  A    between atoms: C2_2  and  O1_10
REMARK    3  A    between atoms: C3_3  and  C4_4
REMARK    4  A    between atoms: C4_4  and  S1_5
REMARK    5  A    between atoms: S1_5  and  S2_6
REMARK    6  A    between atoms: S2_6  and  C5_7
REMARK    7  A    between atoms: C5_7  and  C6_8
REMARK                            x       y       z     vdW  Elec       q    Type
REMARK                         _______ _______ _______ _____ _____    ______ ____
ROOT
ATOM      1  C4  UNL     1      -9.923  95.780 124.281  0.00  0.00    +0.000 C 
ENDROOT
BRANCH   1   4
ATOM      2  C1  UNL     1     -10.829  99.002 122.343  0.00  0.00    +0.000 C 
ATOM      3  C2  UNL     1     -10.948  97.779 123.203  0.00  0.00    +0.000 C 
ATOM      4  C3  UNL     1      -9.874  97.010 123.421  0.00  0.00    +0.000 C 
BRANCH   3   5
ATOM      5  O1  UNL     1     -12.173  97.455 123.786  0.00  0.00    +0.000 OA
ATOM      6  H12 UNL     1     -12.270  96.666 124.414  0.00  0.00    +0.000 HD
ENDBRANCH   3   5
ENDBRANCH   1   4
BRANCH   1   7
ATOM      7  S1  UNL     1      -8.839  95.958 125.739  0.00  0.00    +0.000 S 
BRANCH   7   8
ATOM      8  S2  UNL     1      -7.601  97.455 124.844  0.00  0.00    +0.000 S 
BRANCH   8   9
ATOM      9  C5  UNL     1      -7.573  98.518 126.324  0.00  0.00    +0.000 C 
BRANCH   9  10
ATOM     10  C6  UNL     1      -8.758  98.217 127.197  0.00  0.00    +0.000 C 
ATOM     11  C7  UNL     1      -9.363  99.164 127.919  0.00  0.00    +0.000 C 
ENDBRANCH   9  10
ENDBRANCH   8   9
ENDBRANCH   7   8
ENDBRANCH   1   7
TORSDOF 6
ENDMDL
MODEL 8
REMARK VINA RESULT:      -2.7      2.756      4.154
REMARK  Name = .\Allicin.pdb
REMARK  7 active torsions:
REMARK  status: ('A' for Active; 'I' for Inactive)
REMARK    1  A    between atoms: C1_1  and  C2_2
REMARK    2  A    between atoms: C2_2  and  O1_10
REMARK    3  A    between atoms: C3_3  and  C4_4
REMARK    4  A    between atoms: C4_4  and  S1_5
REMARK    5  A    between atoms: S1_5  and  S2_6
REMARK    6  A    between atoms: S2_6  and  C5_7
REMARK    7  A    between atoms: C5_7  and  C6_8
REMARK                            x       y       z     vdW  Elec       q    Type
REMARK                         _______ _______ _______ _____ _____    ______ ____
ROOT
ATOM      1  C4  UNL     1      -8.121  97.167 125.390  0.00  0.00    +0.000 C 
ENDROOT
BRANCH   1   4
ATOM      2  C1  UNL     1      -9.428  99.550 128.142  0.00  0.00    +0.000 C 
ATOM      3  C2  UNL     1      -9.283  98.834 126.831  0.00  0.00    +0.000 C 
ATOM      4  C3  UNL     1      -8.312  97.926 126.671  0.00  0.00    +0.000 C 
BRANCH   3   5
ATOM      5  O1  UNL     1     -10.169  99.106 125.788  0.00  0.00    +0.000 OA
ATOM      6  H12 UNL     1     -10.293 100.045 125.429  0.00  0.00    +0.000 HD
ENDBRANCH   3   5
ENDBRANCH   1   4
BRANCH   1   7
ATOM      7  S1  UNL     1      -9.010  95.574 125.435  0.00  0.00    +0.000 S 
BRANCH   7   8
ATOM      8  S2  UNL     1     -10.307  96.061 123.805  0.00  0.00    +0.000 S 
BRANCH   8   9
ATOM      9  C5  UNL     1      -9.116  97.189 123.011  0.00  0.00    +0.000 C 
BRANCH   9  10
ATOM     10  C6  UNL     1      -9.838  98.364 122.417  0.00  0.00    +0.000 C 
ATOM     11  C7  UNL     1      -9.202  99.296 121.699  0.00  0.00    +0.000 C 
ENDBRANCH   9  10
ENDBRANCH   8   9
ENDBRANCH   7   8
ENDBRANCH   1   7
TORSDOF 6
ENDMDL
MODEL 9
REMARK VINA RESULT:      -2.4      2.006      2.744
REMARK  Name = .\Allicin.pdb
REMARK  7 active torsions:
REMARK  status: ('A' for Active; 'I' for Inactive)
REMARK    1  A    between atoms: C1_1  and  C2_2
REMARK    2  A    between atoms: C2_2  and  O1_10
REMARK    3  A    between atoms: C3_3  and  C4_4
REMARK    4  A    between atoms: C4_4  and  S1_5
REMARK    5  A    between atoms: S1_5  and  S2_6
REMARK    6  A    between atoms: S2_6  and  C5_7
REMARK    7  A    between atoms: C5_7  and  C6_8
REMARK                            x       y       z     vdW  Elec       q    Type
REMARK                         _______ _______ _______ _____ _____    ______ ____
ROOT
ATOM      1  C4  UNL     1      -8.021  97.011 125.714  0.00  0.00    +0.000 C 
ENDROOT
BRANCH   1   4
ATOM      2  C1  UNL     1     -10.774  95.080 123.804  0.00  0.00    +0.000 C 
ATOM      3  C2  UNL     1      -9.542  95.378 124.607  0.00  0.00    +0.000 C 
ATOM      4  C3  UNL     1      -9.232  96.646 124.905  0.00  0.00    +0.000 C 
BRANCH   3   5
ATOM      5  O1  UNL     1      -8.733  94.334 125.053  0.00  0.00    +0.000 OA
ATOM      6  H12 UNL     1      -7.752  94.475 125.263  0.00  0.00    +0.000 HD
ENDBRANCH   3   5
ENDBRANCH   1   4
BRANCH   1   7
ATOM      7  S1  UNL     1      -7.236  98.527 125.068  0.00  0.00    +0.000 S 
BRANCH   7   8
ATOM      8  S2  UNL     1      -6.706  99.277 127.000  0.00  0.00    +0.000 S 
BRANCH   8   9
ATOM      9  C5  UNL     1      -8.166  98.571 127.830  0.00  0.00    +0.000 C 
BRANCH   9  10
ATOM     10  C6  UNL     1      -9.304  99.550 127.790  0.00  0.00    +0.000 C 
ATOM     11  C7  UNL     1     -10.450  99.330 128.442  0.00  0.00    +0.000 C 
ENDBRANCH   9  10
ENDBRANCH   8   9
ENDBRANCH   7   8
ENDBRANCH   1   7
TORSDOF 6
ENDMDL
