MODEL 1
REMARK VINA RESULT:      -2.7      0.000      0.000
REMARK  Name = .\Allicin.pdb
REMARK  7 active torsions:
REMARK  status: ('A' for Active; 'I' for Inactive)
REMARK    1  A    between atoms: C1_1  and  C2_2
REMARK    2  A    between atoms: C2_2  and  O1_10
REMARK    3  A    between atoms: C3_3  and  C4_4
REMARK    4  A    between atoms: C4_4  and  S1_5
REMARK    5  A    between atoms: S1_5  and  S2_6
REMARK    6  A    between atoms: S2_6  and  C5_7
REMARK    7  A    between atoms: C5_7  and  C6_8
REMARK                            x       y       z     vdW  Elec       q    Type
REMARK                         _______ _______ _______ _____ _____    ______ ____
ROOT
ATOM      1  C4  UNL     1     -18.263  71.050  47.997  0.00  0.00    +0.000 C 
ENDROOT
BRANCH   1   4
ATOM      2  C1  UNL     1     -14.916  71.881  46.246  0.00  0.00    +0.000 C 
ATOM      3  C2  UNL     1     -16.153  72.011  47.084  0.00  0.00    +0.000 C 
ATOM      4  C3  UNL     1     -17.013  70.988  47.167  0.00  0.00    +0.000 C 
BRANCH   3   5
ATOM      5  O1  UNL     1     -16.397  73.191  47.786  0.00  0.00    +0.000 OA
ATOM      6  H12 UNL     1     -15.660  73.864  47.965  0.00  0.00    +0.000 HD
ENDBRANCH   3   5
ENDBRANCH   1   4
BRANCH   1   7
ATOM      7  S1  UNL     1     -18.108  70.010  49.489  0.00  0.00    +0.000 S 
BRANCH   7   8
ATOM      8  S2  UNL     1     -18.324  71.643  50.853  0.00  0.00    +0.000 S 
BRANCH   8   9
ATOM      9  C5  UNL     1     -19.367  72.628  49.730  0.00  0.00    +0.000 C 
BRANCH   9  10
ATOM     10  C6  UNL     1     -19.202  74.091  50.023  0.00  0.00    +0.000 C 
ATOM     11  C7  UNL     1     -18.198  74.552  50.775  0.00  0.00    +0.000 C 
ENDBRANCH   9  10
ENDBRANCH   8   9
ENDBRANCH   7   8
ENDBRANCH   1   7
TORSDOF 6
ENDMDL
MODEL 2
REMARK VINA RESULT:      -2.7      2.208      4.057
REMARK  Name = .\Allicin.pdb
REMARK  7 active torsions:
REMARK  status: ('A' for Active; 'I' for Inactive)
REMARK    1  A    between atoms: C1_1  and  C2_2
REMARK    2  A    between atoms: C2_2  and  O1_10
REMARK    3  A    between atoms: C3_3  and  C4_4
REMARK    4  A    between atoms: C4_4  and  S1_5
REMARK    5  A    between atoms: S1_5  and  S2_6
REMARK    6  A    between atoms: S2_6  and  C5_7
REMARK    7  A    between atoms: C5_7  and  C6_8
REMARK                            x       y       z     vdW  Elec       q    Type
REMARK                         _______ _______ _______ _____ _____    ______ ____
ROOT
ATOM      1  C4  UNL     1     -17.735  71.023  48.973  0.00  0.00    +0.000 C 
ENDROOT
BRANCH   1   4
ATOM      2  C1  UNL     1     -15.114  71.868  46.257  0.00  0.00    +0.000 C 
ATOM      3  C2  UNL     1     -16.133  72.022  47.348  0.00  0.00    +0.000 C 
ATOM      4  C3  UNL     1     -16.717  70.938  47.873  0.00  0.00    +0.000 C 
BRANCH   3   5
ATOM      5  O1  UNL     1     -16.458  73.293  47.822  0.00  0.00    +0.000 OA
ATOM      6  H12 UNL     1     -17.114  73.890  47.332  0.00  0.00    +0.000 HD
ENDBRANCH   3   5
ENDBRANCH   1   4
BRANCH   1   7
ATOM      7  S1  UNL     1     -19.427  71.101  48.294  0.00  0.00    +0.000 S 
BRANCH   7   8
ATOM      8  S2  UNL     1     -19.294  69.213  47.297  0.00  0.00    +0.000 S 
BRANCH   8   9
ATOM      9  C5  UNL     1     -19.387  69.930  45.625  0.00  0.00    +0.000 C 
BRANCH   9  10
ATOM     10  C6  UNL     1     -18.233  69.448  44.793  0.00  0.00    +0.000 C 
ATOM     11  C7  UNL     1     -17.552  70.268  43.986  0.00  0.00    +0.000 C 
ENDBRANCH   9  10
ENDBRANCH   8   9
ENDBRANCH   7   8
ENDBRANCH   1   7
TORSDOF 6
ENDMDL
MODEL 3
REMARK VINA RESULT:      -2.5      2.742      3.944
REMARK  Name = .\Allicin.pdb
REMARK  7 active torsions:
REMARK  status: ('A' for Active; 'I' for Inactive)
REMARK    1  A    between atoms: C1_1  and  C2_2
REMARK    2  A    between atoms: C2_2  and  O1_10
REMARK    3  A    between atoms: C3_3  and  C4_4
REMARK    4  A    between atoms: C4_4  and  S1_5
REMARK    5  A    between atoms: S1_5  and  S2_6
REMARK    6  A    between atoms: S2_6  and  C5_7
REMARK    7  A    between atoms: C5_7  and  C6_8
REMARK                            x       y       z     vdW  Elec       q    Type
REMARK                         _______ _______ _______ _____ _____    ______ ____
ROOT
ATOM      1  C4  UNL     1     -18.530  69.539  46.587  0.00  0.00    +0.000 C 
ENDROOT
BRANCH   1   4
ATOM      2  C1  UNL     1     -17.439  68.871  42.937  0.00  0.00    +0.000 C 
ATOM      3  C2  UNL     1     -17.912  69.577  44.173  0.00  0.00    +0.000 C 
ATOM      4  C3  UNL     1     -18.072  68.891  45.312  0.00  0.00    +0.000 C 
BRANCH   3   5
ATOM      5  O1  UNL     1     -18.168  70.947  44.137  0.00  0.00    +0.000 OA
ATOM      6  H12 UNL     1     -17.545  71.615  44.577  0.00  0.00    +0.000 HD
ENDBRANCH   3   5
ENDBRANCH   1   4
BRANCH   1   7
ATOM      7  S1  UNL     1     -17.548  68.950  48.008  0.00  0.00    +0.000 S 
BRANCH   7   8
ATOM      8  S2  UNL     1     -17.540  70.846  49.000  0.00  0.00    +0.000 S 
BRANCH   8   9
ATOM      9  C5  UNL     1     -17.418  71.810  47.459  0.00  0.00    +0.000 C 
BRANCH   9  10
ATOM     10  C6  UNL     1     -15.994  72.223  47.221  0.00  0.00    +0.000 C 
ATOM     11  C7  UNL     1     -15.285  71.753  46.190  0.00  0.00    +0.000 C 
ENDBRANCH   9  10
ENDBRANCH   8   9
ENDBRANCH   7   8
ENDBRANCH   1   7
TORSDOF 6
ENDMDL
MODEL 4
REMARK VINA RESULT:      -2.5      1.620      1.637
REMARK  Name = .\Allicin.pdb
REMARK  7 active torsions:
REMARK  status: ('A' for Active; 'I' for Inactive)
REMARK    1  A    between atoms: C1_1  and  C2_2
REMARK    2  A    between atoms: C2_2  and  O1_10
REMARK    3  A    between atoms: C3_3  and  C4_4
REMARK    4  A    between atoms: C4_4  and  S1_5
REMARK    5  A    between atoms: S1_5  and  S2_6
REMARK    6  A    between atoms: S2_6  and  C5_7
REMARK    7  A    between atoms: C5_7  and  C6_8
REMARK                            x       y       z     vdW  Elec       q    Type
REMARK                         _______ _______ _______ _____ _____    ______ ____
ROOT
ATOM      1  C4  UNL     1     -18.170  69.637  47.473  0.00  0.00    +0.000 C 
ENDROOT
BRANCH   1   4
ATOM      2  C1  UNL     1     -15.206  71.876  46.394  0.00  0.00    +0.000 C 
ATOM      3  C2  UNL     1     -16.489  71.100  46.357  0.00  0.00    +0.000 C 
ATOM      4  C3  UNL     1     -16.891  70.423  47.440  0.00  0.00    +0.000 C 
BRANCH   3   5
ATOM      5  O1  UNL     1     -17.268  71.099  45.200  0.00  0.00    +0.000 OA
ATOM      6  H12 UNL     1     -17.717  71.941  44.862  0.00  0.00    +0.000 HD
ENDBRANCH   3   5
ENDBRANCH   1   4
BRANCH   1   7
ATOM      7  S1  UNL     1     -19.346  70.353  48.671  0.00  0.00    +0.000 S 
BRANCH   7   8
ATOM      8  S2  UNL     1     -17.823  71.108  49.969  0.00  0.00    +0.000 S 
BRANCH   8   9
ATOM      9  C5  UNL     1     -18.727  72.639  50.370  0.00  0.00    +0.000 C 
BRANCH   9  10
ATOM     10  C6  UNL     1     -18.459  73.684  49.325  0.00  0.00    +0.000 C 
ATOM     11  C7  UNL     1     -17.229  73.916  48.856  0.00  0.00    +0.000 C 
ENDBRANCH   9  10
ENDBRANCH   8   9
ENDBRANCH   7   8
ENDBRANCH   1   7
TORSDOF 6
ENDMDL
MODEL 5
REMARK VINA RESULT:      -2.4      1.311      4.171
REMARK  Name = .\Allicin.pdb
REMARK  7 active torsions:
REMARK  status: ('A' for Active; 'I' for Inactive)
REMARK    1  A    between atoms: C1_1  and  C2_2
REMARK    2  A    between atoms: C2_2  and  O1_10
REMARK    3  A    between atoms: C3_3  and  C4_4
REMARK    4  A    between atoms: C4_4  and  S1_5
REMARK    5  A    between atoms: S1_5  and  S2_6
REMARK    6  A    between atoms: S2_6  and  C5_7
REMARK    7  A    between atoms: C5_7  and  C6_8
REMARK                            x       y       z     vdW  Elec       q    Type
REMARK                         _______ _______ _______ _____ _____    ______ ____
ROOT
ATOM      1  C4  UNL     1     -17.336  71.365  49.330  0.00  0.00    +0.000 C 
ENDROOT
BRANCH   1   4
ATOM      2  C1  UNL     1     -19.001  74.757  50.155  0.00  0.00    +0.000 C 
ATOM      3  C2  UNL     1     -18.027  73.738  49.641  0.00  0.00    +0.000 C 
ATOM      4  C3  UNL     1     -18.264  72.434  49.829  0.00  0.00    +0.000 C 
BRANCH   3   5
ATOM      5  O1  UNL     1     -16.885  74.152  48.956  0.00  0.00    +0.000 OA
ATOM      6  H12 UNL     1     -16.923  74.438  47.984  0.00  0.00    +0.000 HD
ENDBRANCH   3   5
ENDBRANCH   1   4
BRANCH   1   7
ATOM      7  S1  UNL     1     -18.152  69.732  49.345  0.00  0.00    +0.000 S 
BRANCH   7   8
ATOM      8  S2  UNL     1     -17.364  69.135  47.448  0.00  0.00    +0.000 S 
BRANCH   8   9
ATOM      9  C5  UNL     1     -17.557  70.781  46.691  0.00  0.00    +0.000 C 
BRANCH   9  10
ATOM     10  C6  UNL     1     -16.354  71.107  45.854  0.00  0.00    +0.000 C 
ATOM     11  C7  UNL     1     -15.323  71.804  46.340  0.00  0.00    +0.000 C 
ENDBRANCH   9  10
ENDBRANCH   8   9
ENDBRANCH   7   8
ENDBRANCH   1   7
TORSDOF 6
ENDMDL
MODEL 6
REMARK VINA RESULT:      -2.4      1.649      2.024
REMARK  Name = .\Allicin.pdb
REMARK  7 active torsions:
REMARK  status: ('A' for Active; 'I' for Inactive)
REMARK    1  A    between atoms: C1_1  and  C2_2
REMARK    2  A    between atoms: C2_2  and  O1_10
REMARK    3  A    between atoms: C3_3  and  C4_4
REMARK    4  A    between atoms: C4_4  and  S1_5
REMARK    5  A    between atoms: S1_5  and  S2_6
REMARK    6  A    between atoms: S2_6  and  C5_7
REMARK    7  A    between atoms: C5_7  and  C6_8
REMARK                            x       y       z     vdW  Elec       q    Type
REMARK                         _______ _______ _______ _____ _____    ______ ____
ROOT
ATOM      1  C4  UNL     1     -18.241  70.518  46.694  0.00  0.00    +0.000 C 
ENDROOT
BRANCH   1   4
ATOM      2  C1  UNL     1     -14.696  71.936  46.078  0.00  0.00    +0.000 C 
ATOM      3  C2  UNL     1     -15.996  71.598  46.745  0.00  0.00    +0.000 C 
ATOM      4  C3  UNL     1     -16.925  70.899  46.080  0.00  0.00    +0.000 C 
BRANCH   3   5
ATOM      5  O1  UNL     1     -16.228  71.998  48.061  0.00  0.00    +0.000 OA
ATOM      6  H12 UNL     1     -17.109  71.810  48.526  0.00  0.00    +0.000 HD
ENDBRANCH   3   5
ENDBRANCH   1   4
BRANCH   1   7
ATOM      7  S1  UNL     1     -18.104  68.945  47.610  0.00  0.00    +0.000 S 
BRANCH   7   8
ATOM      8  S2  UNL     1     -19.551  69.488  49.089  0.00  0.00    +0.000 S 
BRANCH   8   9
ATOM      9  C5  UNL     1     -18.315  70.122  50.269  0.00  0.00    +0.000 C 
BRANCH   9  10
ATOM     10  C6  UNL     1     -18.628  71.547  50.627  0.00  0.00    +0.000 C 
ATOM     11  C7  UNL     1     -19.339  72.339  49.819  0.00  0.00    +0.000 C 
ENDBRANCH   9  10
ENDBRANCH   8   9
ENDBRANCH   7   8
ENDBRANCH   1   7
TORSDOF 6
ENDMDL
MODEL 7
REMARK VINA RESULT:      -2.3      1.869      4.224
REMARK  Name = .\Allicin.pdb
REMARK  7 active torsions:
REMARK  status: ('A' for Active; 'I' for Inactive)
REMARK    1  A    between atoms: C1_1  and  C2_2
REMARK    2  A    between atoms: C2_2  and  O1_10
REMARK    3  A    between atoms: C3_3  and  C4_4
REMARK    4  A    between atoms: C4_4  and  S1_5
REMARK    5  A    between atoms: S1_5  and  S2_6
REMARK    6  A    between atoms: S2_6  and  C5_7
REMARK    7  A    between atoms: C5_7  and  C6_8
REMARK                            x       y       z     vdW  Elec       q    Type
REMARK                         _______ _______ _______ _____ _____    ______ ____
ROOT
ATOM      1  C4  UNL     1     -19.519  70.732  48.560  0.00  0.00    +0.000 C 
ENDROOT
BRANCH   1   4
ATOM      2  C1  UNL     1     -18.083  74.181  49.560  0.00  0.00    +0.000 C 
ATOM      3  C2  UNL     1     -18.704  73.078  48.754  0.00  0.00    +0.000 C 
ATOM      4  C3  UNL     1     -18.893  71.874  49.308  0.00  0.00    +0.000 C 
BRANCH   3   5
ATOM      5  O1  UNL     1     -19.096  73.315  47.437  0.00  0.00    +0.000 OA
ATOM      6  H12 UNL     1     -18.800  72.712  46.678  0.00  0.00    +0.000 HD
ENDBRANCH   3   5
ENDBRANCH   1   4
BRANCH   1   7
ATOM      7  S1  UNL     1     -18.242  69.653  47.826  0.00  0.00    +0.000 S 
BRANCH   7   8
ATOM      8  S2  UNL     1     -18.785  70.104  45.807  0.00  0.00    +0.000 S 
BRANCH   8   9
ATOM      9  C5  UNL     1     -17.108  70.628  45.325  0.00  0.00    +0.000 C 
BRANCH   9  10
ATOM     10  C6  UNL     1     -16.398  71.230  46.503  0.00  0.00    +0.000 C 
ATOM     11  C7  UNL     1     -15.226  71.860  46.376  0.00  0.00    +0.000 C 
ENDBRANCH   9  10
ENDBRANCH   8   9
ENDBRANCH   7   8
ENDBRANCH   1   7
TORSDOF 6
ENDMDL
MODEL 8
REMARK VINA RESULT:      -2.3      2.596      5.172
REMARK  Name = .\Allicin.pdb
REMARK  7 active torsions:
REMARK  status: ('A' for Active; 'I' for Inactive)
REMARK    1  A    between atoms: C1_1  and  C2_2
REMARK    2  A    between atoms: C2_2  and  O1_10
REMARK    3  A    between atoms: C3_3  and  C4_4
REMARK    4  A    between atoms: C4_4  and  S1_5
REMARK    5  A    between atoms: S1_5  and  S2_6
REMARK    6  A    between atoms: S2_6  and  C5_7
REMARK    7  A    between atoms: C5_7  and  C6_8
REMARK                            x       y       z     vdW  Elec       q    Type
REMARK                         _______ _______ _______ _____ _____    ______ ____
ROOT
ATOM      1  C4  UNL     1     -17.035  71.810  47.422  0.00  0.00    +0.000 C 
ENDROOT
BRANCH   1   4
ATOM      2  C1  UNL     1     -19.102  74.306  49.533  0.00  0.00    +0.000 C 
ATOM      3  C2  UNL     1     -17.952  73.655  48.822  0.00  0.00    +0.000 C 
ATOM      4  C3  UNL     1     -18.140  72.505  48.163  0.00  0.00    +0.000 C 
BRANCH   3   5
ATOM      5  O1  UNL     1     -16.694  74.258  48.837  0.00  0.00    +0.000 OA
ATOM      6  H12 UNL     1     -15.976  74.006  48.168  0.00  0.00    +0.000 HD
ENDBRANCH   3   5
ENDBRANCH   1   4
BRANCH   1   7
ATOM      7  S1  UNL     1     -17.333  70.011  47.341  0.00  0.00    +0.000 S 
BRANCH   7   8
ATOM      8  S2  UNL     1     -18.918  70.170  45.912  0.00  0.00    +0.000 S 
BRANCH   8   9
ATOM      9  C5  UNL     1     -17.985  69.354  44.576  0.00  0.00    +0.000 C 
BRANCH   9  10
ATOM     10  C6  UNL     1     -17.374  70.384  43.671  0.00  0.00    +0.000 C 
ATOM     11  C7  UNL     1     -16.369  70.089  42.840  0.00  0.00    +0.000 C 
ENDBRANCH   9  10
ENDBRANCH   8   9
ENDBRANCH   7   8
ENDBRANCH   1   7
TORSDOF 6
ENDMDL
MODEL 9
REMARK VINA RESULT:      -2.2      2.483      3.144
REMARK  Name = .\Allicin.pdb
REMARK  7 active torsions:
REMARK  status: ('A' for Active; 'I' for Inactive)
REMARK    1  A    between atoms: C1_1  and  C2_2
REMARK    2  A    between atoms: C2_2  and  O1_10
REMARK    3  A    between atoms: C3_3  and  C4_4
REMARK    4  A    between atoms: C4_4  and  S1_5
REMARK    5  A    between atoms: S1_5  and  S2_6
REMARK    6  A    between atoms: S2_6  and  C5_7
REMARK    7  A    between atoms: C5_7  and  C6_8
REMARK                            x       y       z     vdW  Elec       q    Type
REMARK                         _______ _______ _______ _____ _____    ______ ____
ROOT
ATOM      1  C4  UNL     1     -16.720  70.784  47.581  0.00  0.00    +0.000 C 
ENDROOT
BRANCH   1   4
ATOM      2  C1  UNL     1     -19.387  69.951  44.906  0.00  0.00    +0.000 C 
ATOM      3  C2  UNL     1     -18.111  70.409  45.547  0.00  0.00    +0.000 C 
ATOM      4  C3  UNL     1     -17.975  70.353  46.878  0.00  0.00    +0.000 C 
BRANCH   3   5
ATOM      5  O1  UNL     1     -17.063  70.877  44.755  0.00  0.00    +0.000 OA
ATOM      6  H12 UNL     1     -16.119  70.522  44.858  0.00  0.00    +0.000 HD
ENDBRANCH   3   5
ENDBRANCH   1   4
BRANCH   1   7
ATOM      7  S1  UNL     1     -16.797  72.551  48.030  0.00  0.00    +0.000 S 
BRANCH   7   8
ATOM      8  S2  UNL     1     -18.863  72.494  48.580  0.00  0.00    +0.000 S 
BRANCH   8   9
ATOM      9  C5  UNL     1     -18.541  72.714  50.360  0.00  0.00    +0.000 C 
BRANCH   9  10
ATOM     10  C6  UNL     1     -18.142  71.404  50.977  0.00  0.00    +0.000 C 
ATOM     11  C7  UNL     1     -18.771  70.262  50.682  0.00  0.00    +0.000 C 
ENDBRANCH   9  10
ENDBRANCH   8   9
ENDBRANCH   7   8
ENDBRANCH   1   7
TORSDOF 6
ENDMDL
