MODEL 1
REMARK VINA RESULT:      -3.2      0.000      0.000
REMARK  Name = .\Allicin.pdb
REMARK  7 active torsions:
REMARK  status: ('A' for Active; 'I' for Inactive)
REMARK    1  A    between atoms: C1_1  and  C2_2
REMARK    2  A    between atoms: C2_2  and  O1_10
REMARK    3  A    between atoms: C3_3  and  C4_4
REMARK    4  A    between atoms: C4_4  and  S1_5
REMARK    5  A    between atoms: S1_5  and  S2_6
REMARK    6  A    between atoms: S2_6  and  C5_7
REMARK    7  A    between atoms: C5_7  and  C6_8
REMARK                            x       y       z     vdW  Elec       q    Type
REMARK                         _______ _______ _______ _____ _____    ______ ____
ROOT
ATOM      1  C4  UNL     1       9.179  77.022  59.219  0.00  0.00    +0.000 C 
ENDROOT
BRANCH   1   4
ATOM      2  C1  UNL     1       6.954  80.166  59.564  0.00  0.00    +0.000 C 
ATOM      3  C2  UNL     1       7.397  78.763  59.275  0.00  0.00    +0.000 C 
ATOM      4  C3  UNL     1       8.674  78.412  59.477  0.00  0.00    +0.000 C 
BRANCH   3   5
ATOM      5  O1  UNL     1       6.477  77.824  58.811  0.00  0.00    +0.000 OA
ATOM      6  H12 UNL     1       6.492  77.494  57.852  0.00  0.00    +0.000 HD
ENDBRANCH   3   5
ENDBRANCH   1   4
BRANCH   1   7
ATOM      7  S1  UNL     1      10.951  77.042  58.779  0.00  0.00    +0.000 S 
BRANCH   7   8
ATOM      8  S2  UNL     1      11.543  78.131  60.523  0.00  0.00    +0.000 S 
BRANCH   8   9
ATOM      9  C5  UNL     1      11.816  76.640  61.534  0.00  0.00    +0.000 C 
BRANCH   9  10
ATOM     10  C6  UNL     1      10.849  76.613  62.683  0.00  0.00    +0.000 C 
ATOM     11  C7  UNL     1      10.196  77.707  63.083  0.00  0.00    +0.000 C 
ENDBRANCH   9  10
ENDBRANCH   8   9
ENDBRANCH   7   8
ENDBRANCH   1   7
TORSDOF 6
ENDMDL
MODEL 2
REMARK VINA RESULT:      -3.0      2.754      4.905
REMARK  Name = .\Allicin.pdb
REMARK  7 active torsions:
REMARK  status: ('A' for Active; 'I' for Inactive)
REMARK    1  A    between atoms: C1_1  and  C2_2
REMARK    2  A    between atoms: C2_2  and  O1_10
REMARK    3  A    between atoms: C3_3  and  C4_4
REMARK    4  A    between atoms: C4_4  and  S1_5
REMARK    5  A    between atoms: S1_5  and  S2_6
REMARK    6  A    between atoms: S2_6  and  C5_7
REMARK    7  A    between atoms: C5_7  and  C6_8
REMARK                            x       y       z     vdW  Elec       q    Type
REMARK                         _______ _______ _______ _____ _____    ______ ____
ROOT
ATOM      1  C4  UNL     1       9.355  78.474  59.093  0.00  0.00    +0.000 C 
ENDROOT
BRANCH   1   4
ATOM      2  C1  UNL     1      10.254  78.090  62.835  0.00  0.00    +0.000 C 
ATOM      3  C2  UNL     1      10.039  78.694  61.478  0.00  0.00    +0.000 C 
ATOM      4  C3  UNL     1       9.601  77.929  60.470  0.00  0.00    +0.000 C 
BRANCH   3   5
ATOM      5  O1  UNL     1      10.281  80.053  61.275  0.00  0.00    +0.000 OA
ATOM      6  H12 UNL     1       9.552  80.678  60.951  0.00  0.00    +0.000 HD
ENDBRANCH   3   5
ENDBRANCH   1   4
BRANCH   1   7
ATOM      7  S1  UNL     1       7.811  77.799  58.390  0.00  0.00    +0.000 S 
BRANCH   7   8
ATOM      8  S2  UNL     1       7.057  79.706  57.782  0.00  0.00    +0.000 S 
BRANCH   8   9
ATOM      9  C5  UNL     1       6.971  80.370  59.477  0.00  0.00    +0.000 C 
BRANCH   9  10
ATOM     10  C6  UNL     1       7.646  81.710  59.539  0.00  0.00    +0.000 C 
ATOM     11  C7  UNL     1       7.048  82.778  60.077  0.00  0.00    +0.000 C 
ENDBRANCH   9  10
ENDBRANCH   8   9
ENDBRANCH   7   8
ENDBRANCH   1   7
TORSDOF 6
ENDMDL
MODEL 3
REMARK VINA RESULT:      -3.0      2.141      2.361
REMARK  Name = .\Allicin.pdb
REMARK  7 active torsions:
REMARK  status: ('A' for Active; 'I' for Inactive)
REMARK    1  A    between atoms: C1_1  and  C2_2
REMARK    2  A    between atoms: C2_2  and  O1_10
REMARK    3  A    between atoms: C3_3  and  C4_4
REMARK    4  A    between atoms: C4_4  and  S1_5
REMARK    5  A    between atoms: S1_5  and  S2_6
REMARK    6  A    between atoms: S2_6  and  C5_7
REMARK    7  A    between atoms: C5_7  and  C6_8
REMARK                            x       y       z     vdW  Elec       q    Type
REMARK                         _______ _______ _______ _____ _____    ______ ____
ROOT
ATOM      1  C4  UNL     1       7.411  78.064  57.758  0.00  0.00    +0.000 C 
ENDROOT
BRANCH   1   4
ATOM      2  C1  UNL     1       7.219  81.468  59.584  0.00  0.00    +0.000 C 
ATOM      3  C2  UNL     1       7.067  80.007  59.279  0.00  0.00    +0.000 C 
ATOM      4  C3  UNL     1       7.521  79.518  58.119  0.00  0.00    +0.000 C 
BRANCH   3   5
ATOM      5  O1  UNL     1       6.466  79.161  60.211  0.00  0.00    +0.000 OA
ATOM      6  H12 UNL     1       6.315  78.178  60.015  0.00  0.00    +0.000 HD
ENDBRANCH   3   5
ENDBRANCH   1   4
BRANCH   1   7
ATOM      7  S1  UNL     1       9.056  77.347  57.425  0.00  0.00    +0.000 S 
BRANCH   7   8
ATOM      8  S2  UNL     1       9.605  77.222  59.488  0.00  0.00    +0.000 S 
BRANCH   8   9
ATOM      9  C5  UNL     1      10.841  78.556  59.387  0.00  0.00    +0.000 C 
BRANCH   9  10
ATOM     10  C6  UNL     1      10.694  79.484  60.558  0.00  0.00    +0.000 C 
ATOM     11  C7  UNL     1       9.875  79.211  61.579  0.00  0.00    +0.000 C 
ENDBRANCH   9  10
ENDBRANCH   8   9
ENDBRANCH   7   8
ENDBRANCH   1   7
TORSDOF 6
ENDMDL
MODEL 4
REMARK VINA RESULT:      -3.0      2.418      5.114
REMARK  Name = .\Allicin.pdb
REMARK  7 active torsions:
REMARK  status: ('A' for Active; 'I' for Inactive)
REMARK    1  A    between atoms: C1_1  and  C2_2
REMARK    2  A    between atoms: C2_2  and  O1_10
REMARK    3  A    between atoms: C3_3  and  C4_4
REMARK    4  A    between atoms: C4_4  and  S1_5
REMARK    5  A    between atoms: S1_5  and  S2_6
REMARK    6  A    between atoms: S2_6  and  C5_7
REMARK    7  A    between atoms: C5_7  and  C6_8
REMARK                            x       y       z     vdW  Elec       q    Type
REMARK                         _______ _______ _______ _____ _____    ______ ____
ROOT
ATOM      1  C4  UNL     1       9.611  79.572  61.214  0.00  0.00    +0.000 C 
ENDROOT
BRANCH   1   4
ATOM      2  C1  UNL     1      11.862  76.623  62.308  0.00  0.00    +0.000 C 
ATOM      3  C2  UNL     1      10.679  77.402  61.814  0.00  0.00    +0.000 C 
ATOM      4  C3  UNL     1      10.754  78.735  61.712  0.00  0.00    +0.000 C 
BRANCH   3   5
ATOM      5  O1  UNL     1       9.510  76.735  61.447  0.00  0.00    +0.000 OA
ATOM      6  H12 UNL     1       9.466  75.723  61.410  0.00  0.00    +0.000 HD
ENDBRANCH   3   5
ENDBRANCH   1   4
BRANCH   1   7
ATOM      7  S1  UNL     1       9.813  79.967  59.443  0.00  0.00    +0.000 S 
BRANCH   7   8
ATOM      8  S2  UNL     1       7.967  79.059  58.858  0.00  0.00    +0.000 S 
BRANCH   8   9
ATOM      9  C5  UNL     1       6.931  80.384  59.559  0.00  0.00    +0.000 C 
BRANCH   9  10
ATOM     10  C6  UNL     1       7.576  81.720  59.327  0.00  0.00    +0.000 C 
ATOM     11  C7  UNL     1       7.215  82.808  60.013  0.00  0.00    +0.000 C 
ENDBRANCH   9  10
ENDBRANCH   8   9
ENDBRANCH   7   8
ENDBRANCH   1   7
TORSDOF 6
ENDMDL
MODEL 5
REMARK VINA RESULT:      -2.9      1.873      2.518
REMARK  Name = .\Allicin.pdb
REMARK  7 active torsions:
REMARK  status: ('A' for Active; 'I' for Inactive)
REMARK    1  A    between atoms: C1_1  and  C2_2
REMARK    2  A    between atoms: C2_2  and  O1_10
REMARK    3  A    between atoms: C3_3  and  C4_4
REMARK    4  A    between atoms: C4_4  and  S1_5
REMARK    5  A    between atoms: S1_5  and  S2_6
REMARK    6  A    between atoms: S2_6  and  C5_7
REMARK    7  A    between atoms: C5_7  and  C6_8
REMARK                            x       y       z     vdW  Elec       q    Type
REMARK                         _______ _______ _______ _____ _____    ______ ____
ROOT
ATOM      1  C4  UNL     1       9.073  76.754  58.502  0.00  0.00    +0.000 C 
ENDROOT
BRANCH   1   4
ATOM      2  C1  UNL     1       6.588  79.286  56.964  0.00  0.00    +0.000 C 
ATOM      3  C2  UNL     1       7.223  78.315  57.915  0.00  0.00    +0.000 C 
ATOM      4  C3  UNL     1       8.380  77.724  57.591  0.00  0.00    +0.000 C 
BRANCH   3   5
ATOM      5  O1  UNL     1       6.616  78.044  59.141  0.00  0.00    +0.000 OA
ATOM      6  H12 UNL     1       6.256  78.786  59.731  0.00  0.00    +0.000 HD
ENDBRANCH   3   5
ENDBRANCH   1   4
BRANCH   1   7
ATOM      7  S1  UNL     1      10.613  77.471  59.171  0.00  0.00    +0.000 S 
BRANCH   7   8
ATOM      8  S2  UNL     1      10.002  77.299  61.214  0.00  0.00    +0.000 S 
BRANCH   8   9
ATOM      9  C5  UNL     1      10.163  79.080  61.560  0.00  0.00    +0.000 C 
BRANCH   9  10
ATOM     10  C6  UNL     1       9.876  79.874  60.318  0.00  0.00    +0.000 C 
ATOM     11  C7  UNL     1       8.799  80.658  60.213  0.00  0.00    +0.000 C 
ENDBRANCH   9  10
ENDBRANCH   8   9
ENDBRANCH   7   8
ENDBRANCH   1   7
TORSDOF 6
ENDMDL
MODEL 6
REMARK VINA RESULT:      -2.9      3.166      5.084
REMARK  Name = .\Allicin.pdb
REMARK  7 active torsions:
REMARK  status: ('A' for Active; 'I' for Inactive)
REMARK    1  A    between atoms: C1_1  and  C2_2
REMARK    2  A    between atoms: C2_2  and  O1_10
REMARK    3  A    between atoms: C3_3  and  C4_4
REMARK    4  A    between atoms: C4_4  and  S1_5
REMARK    5  A    between atoms: S1_5  and  S2_6
REMARK    6  A    between atoms: S2_6  and  C5_7
REMARK    7  A    between atoms: C5_7  and  C6_8
REMARK                            x       y       z     vdW  Elec       q    Type
REMARK                         _______ _______ _______ _____ _____    ______ ____
ROOT
ATOM      1  C4  UNL     1       8.533  78.281  59.416  0.00  0.00    +0.000 C 
ENDROOT
BRANCH   1   4
ATOM      2  C1  UNL     1      11.624  79.901  61.083  0.00  0.00    +0.000 C 
ATOM      3  C2  UNL     1      10.292  79.236  60.900  0.00  0.00    +0.000 C 
ATOM      4  C3  UNL     1       9.850  78.956  59.667  0.00  0.00    +0.000 C 
BRANCH   3   5
ATOM      5  O1  UNL     1       9.524  78.898  62.014  0.00  0.00    +0.000 OA
ATOM      6  H12 UNL     1       9.320  79.572  62.742  0.00  0.00    +0.000 HD
ENDBRANCH   3   5
ENDBRANCH   1   4
BRANCH   1   7
ATOM      7  S1  UNL     1       7.201  79.510  59.197  0.00  0.00    +0.000 S 
BRANCH   7   8
ATOM      8  S2  UNL     1       8.159  80.504  57.563  0.00  0.00    +0.000 S 
BRANCH   8   9
ATOM      9  C5  UNL     1       8.177  82.133  58.381  0.00  0.00    +0.000 C 
BRANCH   9  10
ATOM     10  C6  UNL     1       7.419  82.067  59.676  0.00  0.00    +0.000 C 
ATOM     11  C7  UNL     1       6.907  83.159  60.252  0.00  0.00    +0.000 C 
ENDBRANCH   9  10
ENDBRANCH   8   9
ENDBRANCH   7   8
ENDBRANCH   1   7
TORSDOF 6
ENDMDL
MODEL 7
REMARK VINA RESULT:      -2.9      2.683      4.821
REMARK  Name = .\Allicin.pdb
REMARK  7 active torsions:
REMARK  status: ('A' for Active; 'I' for Inactive)
REMARK    1  A    between atoms: C1_1  and  C2_2
REMARK    2  A    between atoms: C2_2  and  O1_10
REMARK    3  A    between atoms: C3_3  and  C4_4
REMARK    4  A    between atoms: C4_4  and  S1_5
REMARK    5  A    between atoms: S1_5  and  S2_6
REMARK    6  A    between atoms: S2_6  and  C5_7
REMARK    7  A    between atoms: C5_7  and  C6_8
REMARK                            x       y       z     vdW  Elec       q    Type
REMARK                         _______ _______ _______ _____ _____    ______ ____
ROOT
ATOM      1  C4  UNL     1      10.013  79.817  59.857  0.00  0.00    +0.000 C 
ENDROOT
BRANCH   1   4
ATOM      2  C1  UNL     1      10.200  77.942  63.235  0.00  0.00    +0.000 C 
ATOM      3  C2  UNL     1       9.933  78.247  61.791  0.00  0.00    +0.000 C 
ATOM      4  C3  UNL     1      10.243  79.452  61.295  0.00  0.00    +0.000 C 
BRANCH   3   5
ATOM      5  O1  UNL     1       9.378  77.270  60.965  0.00  0.00    +0.000 OA
ATOM      6  H12 UNL     1       8.604  77.477  60.344  0.00  0.00    +0.000 HD
ENDBRANCH   3   5
ENDBRANCH   1   4
BRANCH   1   7
ATOM      7  S1  UNL     1       8.434  80.711  59.654  0.00  0.00    +0.000 S 
BRANCH   7   8
ATOM      8  S2  UNL     1       8.309  80.352  57.549  0.00  0.00    +0.000 S 
BRANCH   8   9
ATOM      9  C5  UNL     1       6.773  79.378  57.664  0.00  0.00    +0.000 C 
BRANCH   9  10
ATOM     10  C6  UNL     1       7.030  78.096  58.403  0.00  0.00    +0.000 C 
ATOM     11  C7  UNL     1       7.755  77.107  57.872  0.00  0.00    +0.000 C 
ENDBRANCH   9  10
ENDBRANCH   8   9
ENDBRANCH   7   8
ENDBRANCH   1   7
TORSDOF 6
ENDMDL
MODEL 8
REMARK VINA RESULT:      -2.8      4.095      5.899
REMARK  Name = .\Allicin.pdb
REMARK  7 active torsions:
REMARK  status: ('A' for Active; 'I' for Inactive)
REMARK    1  A    between atoms: C1_1  and  C2_2
REMARK    2  A    between atoms: C2_2  and  O1_10
REMARK    3  A    between atoms: C3_3  and  C4_4
REMARK    4  A    between atoms: C4_4  and  S1_5
REMARK    5  A    between atoms: S1_5  and  S2_6
REMARK    6  A    between atoms: S2_6  and  C5_7
REMARK    7  A    between atoms: C5_7  and  C6_8
REMARK                            x       y       z     vdW  Elec       q    Type
REMARK                         _______ _______ _______ _____ _____    ______ ____
ROOT
ATOM      1  C4  UNL     1       7.883  81.166  58.787  0.00  0.00    +0.000 C 
ENDROOT
BRANCH   1   4
ATOM      2  C1  UNL     1       7.666  77.336  58.297  0.00  0.00    +0.000 C 
ATOM      3  C2  UNL     1       7.443  78.714  58.845  0.00  0.00    +0.000 C 
ATOM      4  C3  UNL     1       8.071  79.760  58.294  0.00  0.00    +0.000 C 
BRANCH   3   5
ATOM      5  O1  UNL     1       6.570  78.904  59.916  0.00  0.00    +0.000 OA
ATOM      6  H12 UNL     1       6.646  78.357  60.766  0.00  0.00    +0.000 HD
ENDBRANCH   3   5
ENDBRANCH   1   4
BRANCH   1   7
ATOM      7  S1  UNL     1       8.446  82.376  57.542  0.00  0.00    +0.000 S 
BRANCH   7   8
ATOM      8  S2  UNL     1       7.689  84.072  58.605  0.00  0.00    +0.000 S 
BRANCH   8   9
ATOM      9  C5  UNL     1       7.219  83.113  60.082  0.00  0.00    +0.000 C 
BRANCH   9  10
ATOM     10  C6  UNL     1       6.154  83.841  60.850  0.00  0.00    +0.000 C 
ATOM     11  C7  UNL     1       5.884  85.132  60.635  0.00  0.00    +0.000 C 
ENDBRANCH   9  10
ENDBRANCH   8   9
ENDBRANCH   7   8
ENDBRANCH   1   7
TORSDOF 6
ENDMDL
MODEL 9
REMARK VINA RESULT:      -2.7      4.198      5.195
REMARK  Name = .\Allicin.pdb
REMARK  7 active torsions:
REMARK  status: ('A' for Active; 'I' for Inactive)
REMARK    1  A    between atoms: C1_1  and  C2_2
REMARK    2  A    between atoms: C2_2  and  O1_10
REMARK    3  A    between atoms: C3_3  and  C4_4
REMARK    4  A    between atoms: C4_4  and  S1_5
REMARK    5  A    between atoms: S1_5  and  S2_6
REMARK    6  A    between atoms: S2_6  and  C5_7
REMARK    7  A    between atoms: C5_7  and  C6_8
REMARK                            x       y       z     vdW  Elec       q    Type
REMARK                         _______ _______ _______ _____ _____    ______ ____
ROOT
ATOM      1  C4  UNL     1       7.345  82.351  60.218  0.00  0.00    +0.000 C 
ENDROOT
BRANCH   1   4
ATOM      2  C1  UNL     1       5.746  85.873  60.232  0.00  0.00    +0.000 C 
ATOM      3  C2  UNL     1       6.149  84.492  60.658  0.00  0.00    +0.000 C 
ATOM      4  C3  UNL     1       6.899  83.736  59.846  0.00  0.00    +0.000 C 
BRANCH   3   5
ATOM      5  O1  UNL     1       5.755  84.006  61.905  0.00  0.00    +0.000 OA
ATOM      6  H12 UNL     1       5.626  84.623  62.698  0.00  0.00    +0.000 HD
ENDBRANCH   3   5
ENDBRANCH   1   4
BRANCH   1   7
ATOM      7  S1  UNL     1       8.094  81.500  58.787  0.00  0.00    +0.000 S 
BRANCH   7   8
ATOM      8  S2  UNL     1       7.200  79.609  59.232  0.00  0.00    +0.000 S 
BRANCH   8   9
ATOM      9  C5  UNL     1       8.774  78.814  59.691  0.00  0.00    +0.000 C 
BRANCH   9  10
ATOM     10  C6  UNL     1       9.466  79.616  60.754  0.00  0.00    +0.000 C 
ATOM     11  C7  UNL     1      10.187  79.038  61.720  0.00  0.00    +0.000 C 
ENDBRANCH   9  10
ENDBRANCH   8   9
ENDBRANCH   7   8
ENDBRANCH   1   7
TORSDOF 6
ENDMDL
