MODEL 1
REMARK VINA RESULT:      -3.7      0.000      0.000
REMARK  Name = .\Allicin.pdb
REMARK  7 active torsions:
REMARK  status: ('A' for Active; 'I' for Inactive)
REMARK    1  A    between atoms: C1_1  and  C2_2
REMARK    2  A    between atoms: C2_2  and  O1_10
REMARK    3  A    between atoms: C3_3  and  C4_4
REMARK    4  A    between atoms: C4_4  and  S1_5
REMARK    5  A    between atoms: S1_5  and  S2_6
REMARK    6  A    between atoms: S2_6  and  C5_7
REMARK    7  A    between atoms: C5_7  and  C6_8
REMARK                            x       y       z     vdW  Elec       q    Type
REMARK                         _______ _______ _______ _____ _____    ______ ____
ROOT
ATOM      1  C4  UNL     1       1.389  36.932  17.138  0.00  0.00    +0.000 C 
ENDROOT
BRANCH   1   4
ATOM      2  C1  UNL     1      -2.069  38.489  16.378  0.00  0.00    +0.000 C 
ATOM      3  C2  UNL     1      -0.608  38.354  16.690  0.00  0.00    +0.000 C 
ATOM      4  C3  UNL     1      -0.068  37.137  16.837  0.00  0.00    +0.000 C 
BRANCH   3   5
ATOM      5  O1  UNL     1       0.186  39.494  16.811  0.00  0.00    +0.000 OA
ATOM      6  H12 UNL     1      -0.202  40.382  17.105  0.00  0.00    +0.000 HD
ENDBRANCH   3   5
ENDBRANCH   1   4
BRANCH   1   7
ATOM      7  S1  UNL     1       1.671  35.312  17.929  0.00  0.00    +0.000 S 
BRANCH   7   8
ATOM      8  S2  UNL     1      -0.380  34.713  17.817  0.00  0.00    +0.000 S 
BRANCH   8   9
ATOM      9  C5  UNL     1      -0.000  32.935  17.688  0.00  0.00    +0.000 C 
BRANCH   9  10
ATOM     10  C6  UNL     1      -0.504  32.395  16.381  0.00  0.00    +0.000 C 
ATOM     11  C7  UNL     1      -1.248  33.132  15.550  0.00  0.00    +0.000 C 
ENDBRANCH   9  10
ENDBRANCH   8   9
ENDBRANCH   7   8
ENDBRANCH   1   7
TORSDOF 6
ENDMDL
MODEL 2
REMARK VINA RESULT:      -3.7      2.218      4.553
REMARK  Name = .\Allicin.pdb
REMARK  7 active torsions:
REMARK  status: ('A' for Active; 'I' for Inactive)
REMARK    1  A    between atoms: C1_1  and  C2_2
REMARK    2  A    between atoms: C2_2  and  O1_10
REMARK    3  A    between atoms: C3_3  and  C4_4
REMARK    4  A    between atoms: C4_4  and  S1_5
REMARK    5  A    between atoms: S1_5  and  S2_6
REMARK    6  A    between atoms: S2_6  and  C5_7
REMARK    7  A    between atoms: C5_7  and  C6_8
REMARK                            x       y       z     vdW  Elec       q    Type
REMARK                         _______ _______ _______ _____ _____    ______ ____
ROOT
ATOM      1  C4  UNL     1      -0.095  34.763  18.245  0.00  0.00    +0.000 C 
ENDROOT
BRANCH   1   4
ATOM      2  C1  UNL     1      -0.982  32.218  15.471  0.00  0.00    +0.000 C 
ATOM      3  C2  UNL     1      -0.983  33.456  16.319  0.00  0.00    +0.000 C 
ATOM      4  C3  UNL     1      -0.151  33.548  17.364  0.00  0.00    +0.000 C 
BRANCH   3   5
ATOM      5  O1  UNL     1      -1.840  34.511  16.008  0.00  0.00    +0.000 OA
ATOM      6  H12 UNL     1      -2.660  34.712  16.568  0.00  0.00    +0.000 HD
ENDBRANCH   3   5
ENDBRANCH   1   4
BRANCH   1   7
ATOM      7  S1  UNL     1       1.401  35.751  17.901  0.00  0.00    +0.000 S 
BRANCH   7   8
ATOM      8  S2  UNL     1       0.337  37.329  16.924  0.00  0.00    +0.000 S 
BRANCH   8   9
ATOM      9  C5  UNL     1      -1.076  37.278  18.074  0.00  0.00    +0.000 C 
BRANCH   9  10
ATOM     10  C6  UNL     1      -2.328  37.717  17.371  0.00  0.00    +0.000 C 
ATOM     11  C7  UNL     1      -2.291  38.428  16.239  0.00  0.00    +0.000 C 
ENDBRANCH   9  10
ENDBRANCH   8   9
ENDBRANCH   7   8
ENDBRANCH   1   7
TORSDOF 6
ENDMDL
MODEL 3
REMARK VINA RESULT:      -3.6      1.677      1.707
REMARK  Name = .\Allicin.pdb
REMARK  7 active torsions:
REMARK  status: ('A' for Active; 'I' for Inactive)
REMARK    1  A    between atoms: C1_1  and  C2_2
REMARK    2  A    between atoms: C2_2  and  O1_10
REMARK    3  A    between atoms: C3_3  and  C4_4
REMARK    4  A    between atoms: C4_4  and  S1_5
REMARK    5  A    between atoms: S1_5  and  S2_6
REMARK    6  A    between atoms: S2_6  and  C5_7
REMARK    7  A    between atoms: C5_7  and  C6_8
REMARK                            x       y       z     vdW  Elec       q    Type
REMARK                         _______ _______ _______ _____ _____    ______ ____
ROOT
ATOM      1  C4  UNL     1      -0.270  35.667  18.318  0.00  0.00    +0.000 C 
ENDROOT
BRANCH   1   4
ATOM      2  C1  UNL     1      -2.062  38.580  16.511  0.00  0.00    +0.000 C 
ATOM      3  C2  UNL     1      -1.435  37.746  17.589  0.00  0.00    +0.000 C 
ATOM      4  C3  UNL     1      -0.922  36.546  17.289  0.00  0.00    +0.000 C 
BRANCH   3   5
ATOM      5  O1  UNL     1      -1.374  38.229  18.896  0.00  0.00    +0.000 OA
ATOM      6  H12 UNL     1      -2.092  38.836  19.271  0.00  0.00    +0.000 HD
ENDBRANCH   3   5
ENDBRANCH   1   4
BRANCH   1   7
ATOM      7  S1  UNL     1       1.505  35.443  17.956  0.00  0.00    +0.000 S 
BRANCH   7   8
ATOM      8  S2  UNL     1       1.340  33.338  17.613  0.00  0.00    +0.000 S 
BRANCH   8   9
ATOM      9  C5  UNL     1       1.216  33.500  15.802  0.00  0.00    +0.000 C 
BRANCH   9  10
ATOM     10  C6  UNL     1       0.011  32.758  15.300  0.00  0.00    +0.000 C 
ATOM     11  C7  UNL     1      -1.232  33.134  15.615  0.00  0.00    +0.000 C 
ENDBRANCH   9  10
ENDBRANCH   8   9
ENDBRANCH   7   8
ENDBRANCH   1   7
TORSDOF 6
ENDMDL
MODEL 4
REMARK VINA RESULT:      -3.4      2.200      4.279
REMARK  Name = .\Allicin.pdb
REMARK  7 active torsions:
REMARK  status: ('A' for Active; 'I' for Inactive)
REMARK    1  A    between atoms: C1_1  and  C2_2
REMARK    2  A    between atoms: C2_2  and  O1_10
REMARK    3  A    between atoms: C3_3  and  C4_4
REMARK    4  A    between atoms: C4_4  and  S1_5
REMARK    5  A    between atoms: S1_5  and  S2_6
REMARK    6  A    between atoms: S2_6  and  C5_7
REMARK    7  A    between atoms: C5_7  and  C6_8
REMARK                            x       y       z     vdW  Elec       q    Type
REMARK                         _______ _______ _______ _____ _____    ______ ____
ROOT
ATOM      1  C4  UNL     1       0.769  35.614  16.747  0.00  0.00    +0.000 C 
ENDROOT
BRANCH   1   4
ATOM      2  C1  UNL     1       4.329  37.027  17.276  0.00  0.00    +0.000 C 
ATOM      3  C2  UNL     1       2.851  36.952  17.034  0.00  0.00    +0.000 C 
ATOM      4  C3  UNL     1       2.246  35.759  16.974  0.00  0.00    +0.000 C 
BRANCH   3   5
ATOM      5  O1  UNL     1       2.109  38.123  16.887  0.00  0.00    +0.000 OA
ATOM      6  H12 UNL     1       1.663  38.571  17.679  0.00  0.00    +0.000 HD
ENDBRANCH   3   5
ENDBRANCH   1   4
BRANCH   1   7
ATOM      7  S1  UNL     1      -0.085  35.128  18.285  0.00  0.00    +0.000 S 
BRANCH   7   8
ATOM      8  S2  UNL     1      -1.182  36.957  18.452  0.00  0.00    +0.000 S 
BRANCH   8   9
ATOM      9  C5  UNL     1      -1.638  37.008  16.689  0.00  0.00    +0.000 C 
BRANCH   9  10
ATOM     10  C6  UNL     1      -2.039  38.402  16.301  0.00  0.00    +0.000 C 
ATOM     11  C7  UNL     1      -1.449  39.480  16.827  0.00  0.00    +0.000 C 
ENDBRANCH   9  10
ENDBRANCH   8   9
ENDBRANCH   7   8
ENDBRANCH   1   7
TORSDOF 6
ENDMDL
MODEL 5
REMARK VINA RESULT:      -3.4      2.240      3.085
REMARK  Name = .\Allicin.pdb
REMARK  7 active torsions:
REMARK  status: ('A' for Active; 'I' for Inactive)
REMARK    1  A    between atoms: C1_1  and  C2_2
REMARK    2  A    between atoms: C2_2  and  O1_10
REMARK    3  A    between atoms: C3_3  and  C4_4
REMARK    4  A    between atoms: C4_4  and  S1_5
REMARK    5  A    between atoms: S1_5  and  S2_6
REMARK    6  A    between atoms: S2_6  and  C5_7
REMARK    7  A    between atoms: C5_7  and  C6_8
REMARK                            x       y       z     vdW  Elec       q    Type
REMARK                         _______ _______ _______ _____ _____    ______ ____
ROOT
ATOM      1  C4  UNL     1      -0.397  35.769  18.413  0.00  0.00    +0.000 C 
ENDROOT
BRANCH   1   4
ATOM      2  C1  UNL     1      -2.014  38.717  16.501  0.00  0.00    +0.000 C 
ATOM      3  C2  UNL     1      -1.464  37.874  17.614  0.00  0.00    +0.000 C 
ATOM      4  C3  UNL     1      -0.972  36.658  17.348  0.00  0.00    +0.000 C 
BRANCH   3   5
ATOM      5  O1  UNL     1      -1.454  38.366  18.919  0.00  0.00    +0.000 OA
ATOM      6  H12 UNL     1      -1.666  39.335  19.122  0.00  0.00    +0.000 HD
ENDBRANCH   3   5
ENDBRANCH   1   4
BRANCH   1   7
ATOM      7  S1  UNL     1      -0.204  34.059  17.804  0.00  0.00    +0.000 S 
BRANCH   7   8
ATOM      8  S2  UNL     1       1.934  34.108  17.847  0.00  0.00    +0.000 S 
BRANCH   8   9
ATOM      9  C5  UNL     1       2.096  34.653  16.115  0.00  0.00    +0.000 C 
BRANCH   9  10
ATOM     10  C6  UNL     1       2.917  35.909  16.045  0.00  0.00    +0.000 C 
ATOM     11  C7  UNL     1       2.837  36.858  16.982  0.00  0.00    +0.000 C 
ENDBRANCH   9  10
ENDBRANCH   8   9
ENDBRANCH   7   8
ENDBRANCH   1   7
TORSDOF 6
ENDMDL
MODEL 6
REMARK VINA RESULT:      -3.4      2.415      2.578
REMARK  Name = .\Allicin.pdb
REMARK  7 active torsions:
REMARK  status: ('A' for Active; 'I' for Inactive)
REMARK    1  A    between atoms: C1_1  and  C2_2
REMARK    2  A    between atoms: C2_2  and  O1_10
REMARK    3  A    between atoms: C3_3  and  C4_4
REMARK    4  A    between atoms: C4_4  and  S1_5
REMARK    5  A    between atoms: S1_5  and  S2_6
REMARK    6  A    between atoms: S2_6  and  C5_7
REMARK    7  A    between atoms: C5_7  and  C6_8
REMARK                            x       y       z     vdW  Elec       q    Type
REMARK                         _______ _______ _______ _____ _____    ______ ____
ROOT
ATOM      1  C4  UNL     1       1.951  35.416  17.739  0.00  0.00    +0.000 C 
ENDROOT
BRANCH   1   4
ATOM      2  C1  UNL     1      -1.448  37.182  18.272  0.00  0.00    +0.000 C 
ATOM      3  C2  UNL     1      -0.342  36.171  18.352  0.00  0.00    +0.000 C 
ATOM      4  C3  UNL     1       0.803  36.381  17.691  0.00  0.00    +0.000 C 
BRANCH   3   5
ATOM      5  O1  UNL     1      -0.504  35.024  19.128  0.00  0.00    +0.000 OA
ATOM      6  H12 UNL     1      -0.378  35.041  20.134  0.00  0.00    +0.000 HD
ENDBRANCH   3   5
ENDBRANCH   1   4
BRANCH   1   7
ATOM      7  S1  UNL     1       2.582  35.066  16.063  0.00  0.00    +0.000 S 
BRANCH   7   8
ATOM      8  S2  UNL     1       2.775  32.961  16.393  0.00  0.00    +0.000 S 
BRANCH   8   9
ATOM      9  C5  UNL     1       1.051  32.748  16.943  0.00  0.00    +0.000 C 
BRANCH   9  10
ATOM     10  C6  UNL     1       0.118  32.857  15.771  0.00  0.00    +0.000 C 
ATOM     11  C7  UNL     1      -1.090  33.418  15.879  0.00  0.00    +0.000 C 
ENDBRANCH   9  10
ENDBRANCH   8   9
ENDBRANCH   7   8
ENDBRANCH   1   7
TORSDOF 6
ENDMDL
MODEL 7
REMARK VINA RESULT:      -3.3      1.670      1.830
REMARK  Name = .\Allicin.pdb
REMARK  7 active torsions:
REMARK  status: ('A' for Active; 'I' for Inactive)
REMARK    1  A    between atoms: C1_1  and  C2_2
REMARK    2  A    between atoms: C2_2  and  O1_10
REMARK    3  A    between atoms: C3_3  and  C4_4
REMARK    4  A    between atoms: C4_4  and  S1_5
REMARK    5  A    between atoms: S1_5  and  S2_6
REMARK    6  A    between atoms: S2_6  and  C5_7
REMARK    7  A    between atoms: C5_7  and  C6_8
REMARK                            x       y       z     vdW  Elec       q    Type
REMARK                         _______ _______ _______ _____ _____    ______ ____
ROOT
ATOM      1  C4  UNL     1       1.176  36.704  17.506  0.00  0.00    +0.000 C 
ENDROOT
BRANCH   1   4
ATOM      2  C1  UNL     1      -1.962  38.750  16.545  0.00  0.00    +0.000 C 
ATOM      3  C2  UNL     1      -0.966  37.966  17.348  0.00  0.00    +0.000 C 
ATOM      4  C3  UNL     1       0.135  37.486  16.757  0.00  0.00    +0.000 C 
BRANCH   3   5
ATOM      5  O1  UNL     1      -1.183  37.754  18.709  0.00  0.00    +0.000 OA
ATOM      6  H12 UNL     1      -1.778  37.004  19.041  0.00  0.00    +0.000 HD
ENDBRANCH   3   5
ENDBRANCH   1   4
BRANCH   1   7
ATOM      7  S1  UNL     1       2.265  35.797  16.356  0.00  0.00    +0.000 S 
BRANCH   7   8
ATOM      8  S2  UNL     1       2.403  34.058  17.594  0.00  0.00    +0.000 S 
BRANCH   8   9
ATOM      9  C5  UNL     1       0.735  34.256  18.301  0.00  0.00    +0.000 C 
BRANCH   9  10
ATOM     10  C6  UNL     1      -0.220  33.303  17.641  0.00  0.00    +0.000 C 
ATOM     11  C7  UNL     1      -0.036  31.980  17.675  0.00  0.00    +0.000 C 
ENDBRANCH   9  10
ENDBRANCH   8   9
ENDBRANCH   7   8
ENDBRANCH   1   7
TORSDOF 6
ENDMDL
MODEL 8
REMARK VINA RESULT:      -3.3      2.746      4.923
REMARK  Name = .\Allicin.pdb
REMARK  7 active torsions:
REMARK  status: ('A' for Active; 'I' for Inactive)
REMARK    1  A    between atoms: C1_1  and  C2_2
REMARK    2  A    between atoms: C2_2  and  O1_10
REMARK    3  A    between atoms: C3_3  and  C4_4
REMARK    4  A    between atoms: C4_4  and  S1_5
REMARK    5  A    between atoms: S1_5  and  S2_6
REMARK    6  A    between atoms: S2_6  and  C5_7
REMARK    7  A    between atoms: C5_7  and  C6_8
REMARK                            x       y       z     vdW  Elec       q    Type
REMARK                         _______ _______ _______ _____ _____    ______ ____
ROOT
ATOM      1  C4  UNL     1       1.913  35.471  17.613  0.00  0.00    +0.000 C 
ENDROOT
BRANCH   1   4
ATOM      2  C1  UNL     1       0.231  31.992  17.775  0.00  0.00    +0.000 C 
ATOM      3  C2  UNL     1       1.018  33.211  18.158  0.00  0.00    +0.000 C 
ATOM      4  C3  UNL     1       1.149  34.220  17.288  0.00  0.00    +0.000 C 
BRANCH   3   5
ATOM      5  O1  UNL     1       1.597  33.295  19.424  0.00  0.00    +0.000 OA
ATOM      6  H12 UNL     1       1.284  33.976  20.106  0.00  0.00    +0.000 HD
ENDBRANCH   3   5
ENDBRANCH   1   4
BRANCH   1   7
ATOM      7  S1  UNL     1       1.070  36.944  16.941  0.00  0.00    +0.000 S 
BRANCH   7   8
ATOM      8  S2  UNL     1      -0.672  36.710  18.161  0.00  0.00    +0.000 S 
BRANCH   8   9
ATOM      9  C5  UNL     1      -1.835  36.775  16.759  0.00  0.00    +0.000 C 
BRANCH   9  10
ATOM     10  C6  UNL     1      -1.838  38.150  16.155  0.00  0.00    +0.000 C 
ATOM     11  C7  UNL     1      -1.733  39.251  16.905  0.00  0.00    +0.000 C 
ENDBRANCH   9  10
ENDBRANCH   8   9
ENDBRANCH   7   8
ENDBRANCH   1   7
TORSDOF 6
ENDMDL
MODEL 9
REMARK VINA RESULT:      -3.2      2.535      2.875
REMARK  Name = .\Allicin.pdb
REMARK  7 active torsions:
REMARK  status: ('A' for Active; 'I' for Inactive)
REMARK    1  A    between atoms: C1_1  and  C2_2
REMARK    2  A    between atoms: C2_2  and  O1_10
REMARK    3  A    between atoms: C3_3  and  C4_4
REMARK    4  A    between atoms: C4_4  and  S1_5
REMARK    5  A    between atoms: S1_5  and  S2_6
REMARK    6  A    between atoms: S2_6  and  C5_7
REMARK    7  A    between atoms: C5_7  and  C6_8
REMARK                            x       y       z     vdW  Elec       q    Type
REMARK                         _______ _______ _______ _____ _____    ______ ____
ROOT
ATOM      1  C4  UNL     1       0.757  36.298  17.737  0.00  0.00    +0.000 C 
ENDROOT
BRANCH   1   4
ATOM      2  C1  UNL     1      -1.912  38.858  16.604  0.00  0.00    +0.000 C 
ATOM      3  C2  UNL     1      -1.090  37.949  17.469  0.00  0.00    +0.000 C 
ATOM      4  C3  UNL     1      -0.109  37.218  16.925  0.00  0.00    +0.000 C 
BRANCH   3   5
ATOM      5  O1  UNL     1      -1.340  37.878  18.840  0.00  0.00    +0.000 OA
ATOM      6  H12 UNL     1      -1.627  38.693  19.369  0.00  0.00    +0.000 HD
ENDBRANCH   3   5
ENDBRANCH   1   4
BRANCH   1   7
ATOM      7  S1  UNL     1       2.512  36.468  17.265  0.00  0.00    +0.000 S 
BRANCH   7   8
ATOM      8  S2  UNL     1       2.885  34.361  17.250  0.00  0.00    +0.000 S 
BRANCH   8   9
ATOM      9  C5  UNL     1       2.034  34.080  15.663  0.00  0.00    +0.000 C 
BRANCH   9  10
ATOM     10  C6  UNL     1       3.037  33.770  14.589  0.00  0.00    +0.000 C 
ATOM     11  C7  UNL     1       3.821  34.715  14.061  0.00  0.00    +0.000 C 
ENDBRANCH   9  10
ENDBRANCH   8   9
ENDBRANCH   7   8
ENDBRANCH   1   7
TORSDOF 6
ENDMDL
