MODEL 1
REMARK VINA RESULT:      -3.7      0.000      0.000
REMARK  Name = .\Allicin.pdb
REMARK  7 active torsions:
REMARK  status: ('A' for Active; 'I' for Inactive)
REMARK    1  A    between atoms: C1_1  and  C2_2
REMARK    2  A    between atoms: C2_2  and  O1_10
REMARK    3  A    between atoms: C3_3  and  C4_4
REMARK    4  A    between atoms: C4_4  and  S1_5
REMARK    5  A    between atoms: S1_5  and  S2_6
REMARK    6  A    between atoms: S2_6  and  C5_7
REMARK    7  A    between atoms: C5_7  and  C6_8
REMARK                            x       y       z     vdW  Elec       q    Type
REMARK                         _______ _______ _______ _____ _____    ______ ____
ROOT
ATOM      1  C4  UNL     1     -15.241  76.265  59.680  0.00  0.00    +0.000 C 
ENDROOT
BRANCH   1   4
ATOM      2  C1  UNL     1     -12.929  78.995  58.210  0.00  0.00    +0.000 C 
ATOM      3  C2  UNL     1     -14.136  78.142  58.470  0.00  0.00    +0.000 C 
ATOM      4  C3  UNL     1     -14.068  77.147  59.364  0.00  0.00    +0.000 C 
BRANCH   3   5
ATOM      5  O1  UNL     1     -15.328  78.398  57.793  0.00  0.00    +0.000 OA
ATOM      6  H12 UNL     1     -16.188  77.919  58.034  0.00  0.00    +0.000 HD
ENDBRANCH   3   5
ENDBRANCH   1   4
BRANCH   1   7
ATOM      7  S1  UNL     1     -15.239  75.780  61.439  0.00  0.00    +0.000 S 
BRANCH   7   8
ATOM      8  S2  UNL     1     -13.669  77.127  61.982  0.00  0.00    +0.000 S 
BRANCH   8   9
ATOM      9  C5  UNL     1     -14.765  78.259  62.897  0.00  0.00    +0.000 C 
BRANCH   9  10
ATOM     10  C6  UNL     1     -15.138  79.427  62.031  0.00  0.00    +0.000 C 
ATOM     11  C7  UNL     1     -16.339  79.524  61.453  0.00  0.00    +0.000 C 
ENDBRANCH   9  10
ENDBRANCH   8   9
ENDBRANCH   7   8
ENDBRANCH   1   7
TORSDOF 6
ENDMDL
MODEL 2
REMARK VINA RESULT:      -3.3      1.608      2.127
REMARK  Name = .\Allicin.pdb
REMARK  7 active torsions:
REMARK  status: ('A' for Active; 'I' for Inactive)
REMARK    1  A    between atoms: C1_1  and  C2_2
REMARK    2  A    between atoms: C2_2  and  O1_10
REMARK    3  A    between atoms: C3_3  and  C4_4
REMARK    4  A    between atoms: C4_4  and  S1_5
REMARK    5  A    between atoms: S1_5  and  S2_6
REMARK    6  A    between atoms: S2_6  and  C5_7
REMARK    7  A    between atoms: C5_7  and  C6_8
REMARK                            x       y       z     vdW  Elec       q    Type
REMARK                         _______ _______ _______ _____ _____    ______ ____
ROOT
ATOM      1  C4  UNL     1     -15.162  76.920  59.853  0.00  0.00    +0.000 C 
ENDROOT
BRANCH   1   4
ATOM      2  C1  UNL     1     -12.543  79.179  58.124  0.00  0.00    +0.000 C 
ATOM      3  C2  UNL     1     -13.799  78.403  58.387  0.00  0.00    +0.000 C 
ATOM      4  C3  UNL     1     -13.927  77.707  59.524  0.00  0.00    +0.000 C 
BRANCH   3   5
ATOM      5  O1  UNL     1     -14.836  78.421  57.455  0.00  0.00    +0.000 OA
ATOM      6  H12 UNL     1     -15.023  79.238  56.885  0.00  0.00    +0.000 HD
ENDBRANCH   3   5
ENDBRANCH   1   4
BRANCH   1   7
ATOM      7  S1  UNL     1     -16.376  77.951  60.745  0.00  0.00    +0.000 S 
BRANCH   7   8
ATOM      8  S2  UNL     1     -14.942  78.743  62.121  0.00  0.00    +0.000 S 
BRANCH   8   9
ATOM      9  C5  UNL     1     -15.726  77.996  63.587  0.00  0.00    +0.000 C 
BRANCH   9  10
ATOM     10  C6  UNL     1     -15.753  76.501  63.451  0.00  0.00    +0.000 C 
ATOM     11  C7  UNL     1     -14.632  75.781  63.343  0.00  0.00    +0.000 C 
ENDBRANCH   9  10
ENDBRANCH   8   9
ENDBRANCH   7   8
ENDBRANCH   1   7
TORSDOF 6
ENDMDL
MODEL 3
REMARK VINA RESULT:      -3.2      1.859      2.265
REMARK  Name = .\Allicin.pdb
REMARK  7 active torsions:
REMARK  status: ('A' for Active; 'I' for Inactive)
REMARK    1  A    between atoms: C1_1  and  C2_2
REMARK    2  A    between atoms: C2_2  and  O1_10
REMARK    3  A    between atoms: C3_3  and  C4_4
REMARK    4  A    between atoms: C4_4  and  S1_5
REMARK    5  A    between atoms: S1_5  and  S2_6
REMARK    6  A    between atoms: S2_6  and  C5_7
REMARK    7  A    between atoms: C5_7  and  C6_8
REMARK                            x       y       z     vdW  Elec       q    Type
REMARK                         _______ _______ _______ _____ _____    ______ ____
ROOT
ATOM      1  C4  UNL     1     -13.976  77.438  62.228  0.00  0.00    +0.000 C 
ENDROOT
BRANCH   1   4
ATOM      2  C1  UNL     1     -13.813  77.439  58.364  0.00  0.00    +0.000 C 
ATOM      3  C2  UNL     1     -13.929  77.913  59.782  0.00  0.00    +0.000 C 
ATOM      4  C3  UNL     1     -13.879  77.029  60.787  0.00  0.00    +0.000 C 
BRANCH   3   5
ATOM      5  O1  UNL     1     -14.073  79.274  60.052  0.00  0.00    +0.000 OA
ATOM      6  H12 UNL     1     -13.397  79.954  59.725  0.00  0.00    +0.000 HD
ENDBRANCH   3   5
ENDBRANCH   1   4
BRANCH   1   7
ATOM      7  S1  UNL     1     -15.190  76.406  63.119  0.00  0.00    +0.000 S 
BRANCH   7   8
ATOM      8  S2  UNL     1     -16.141  78.063  64.082  0.00  0.00    +0.000 S 
BRANCH   8   9
ATOM      9  C5  UNL     1     -16.650  78.858  62.524  0.00  0.00    +0.000 C 
BRANCH   9  10
ATOM     10  C6  UNL     1     -16.233  80.301  62.521  0.00  0.00    +0.000 C 
ATOM     11  C7  UNL     1     -15.372  80.789  63.419  0.00  0.00    +0.000 C 
ENDBRANCH   9  10
ENDBRANCH   8   9
ENDBRANCH   7   8
ENDBRANCH   1   7
TORSDOF 6
ENDMDL
MODEL 4
REMARK VINA RESULT:      -3.2      1.924      4.204
REMARK  Name = .\Allicin.pdb
REMARK  7 active torsions:
REMARK  status: ('A' for Active; 'I' for Inactive)
REMARK    1  A    between atoms: C1_1  and  C2_2
REMARK    2  A    between atoms: C2_2  and  O1_10
REMARK    3  A    between atoms: C3_3  and  C4_4
REMARK    4  A    between atoms: C4_4  and  S1_5
REMARK    5  A    between atoms: S1_5  and  S2_6
REMARK    6  A    between atoms: S2_6  and  C5_7
REMARK    7  A    between atoms: C5_7  and  C6_8
REMARK                            x       y       z     vdW  Elec       q    Type
REMARK                         _______ _______ _______ _____ _____    ______ ____
ROOT
ATOM      1  C4  UNL     1     -15.552  77.229  63.019  0.00  0.00    +0.000 C 
ENDROOT
BRANCH   1   4
ATOM      2  C1  UNL     1     -15.435  81.071  63.448  0.00  0.00    +0.000 C 
ATOM      3  C2  UNL     1     -15.122  79.683  62.973  0.00  0.00    +0.000 C 
ATOM      4  C3  UNL     1     -15.807  78.641  63.462  0.00  0.00    +0.000 C 
BRANCH   3   5
ATOM      5  O1  UNL     1     -14.131  79.483  62.012  0.00  0.00    +0.000 OA
ATOM      6  H12 UNL     1     -14.344  79.086  61.105  0.00  0.00    +0.000 HD
ENDBRANCH   3   5
ENDBRANCH   1   4
BRANCH   1   7
ATOM      7  S1  UNL     1     -16.642  76.773  61.628  0.00  0.00    +0.000 S 
BRANCH   7   8
ATOM      8  S2  UNL     1     -15.040  76.114  60.372  0.00  0.00    +0.000 S 
BRANCH   8   9
ATOM      9  C5  UNL     1     -15.084  77.589  59.303  0.00  0.00    +0.000 C 
BRANCH   9  10
ATOM     10  C6  UNL     1     -13.850  77.642  58.448  0.00  0.00    +0.000 C 
ATOM     11  C7  UNL     1     -13.175  78.779  58.251  0.00  0.00    +0.000 C 
ENDBRANCH   9  10
ENDBRANCH   8   9
ENDBRANCH   7   8
ENDBRANCH   1   7
TORSDOF 6
ENDMDL
MODEL 5
REMARK VINA RESULT:      -3.1      2.313      2.628
REMARK  Name = .\Allicin.pdb
REMARK  7 active torsions:
REMARK  status: ('A' for Active; 'I' for Inactive)
REMARK    1  A    between atoms: C1_1  and  C2_2
REMARK    2  A    between atoms: C2_2  and  O1_10
REMARK    3  A    between atoms: C3_3  and  C4_4
REMARK    4  A    between atoms: C4_4  and  S1_5
REMARK    5  A    between atoms: S1_5  and  S2_6
REMARK    6  A    between atoms: S2_6  and  C5_7
REMARK    7  A    between atoms: C5_7  and  C6_8
REMARK                            x       y       z     vdW  Elec       q    Type
REMARK                         _______ _______ _______ _____ _____    ______ ____
ROOT
ATOM      1  C4  UNL     1     -14.680  76.280  61.913  0.00  0.00    +0.000 C 
ENDROOT
BRANCH   1   4
ATOM      2  C1  UNL     1     -13.862  77.603  58.372  0.00  0.00    +0.000 C 
ATOM      3  C2  UNL     1     -14.367  76.730  59.483  0.00  0.00    +0.000 C 
ATOM      4  C3  UNL     1     -14.188  77.102  60.757  0.00  0.00    +0.000 C 
BRANCH   3   5
ATOM      5  O1  UNL     1     -15.035  75.543  59.185  0.00  0.00    +0.000 OA
ATOM      6  H12 UNL     1     -16.040  75.518  59.051  0.00  0.00    +0.000 HD
ENDBRANCH   3   5
ENDBRANCH   1   4
BRANCH   1   7
ATOM      7  S1  UNL     1     -15.768  77.265  62.999  0.00  0.00    +0.000 S 
BRANCH   7   8
ATOM      8  S2  UNL     1     -14.917  79.143  62.427  0.00  0.00    +0.000 S 
BRANCH   8   9
ATOM      9  C5  UNL     1     -15.583  80.042  63.865  0.00  0.00    +0.000 C 
BRANCH   9  10
ATOM     10  C6  UNL     1     -16.308  79.094  64.776  0.00  0.00    +0.000 C 
ATOM     11  C7  UNL     1     -16.582  79.404  66.046  0.00  0.00    +0.000 C 
ENDBRANCH   9  10
ENDBRANCH   8   9
ENDBRANCH   7   8
ENDBRANCH   1   7
TORSDOF 6
ENDMDL
MODEL 6
REMARK VINA RESULT:      -3.0      3.068      4.563
REMARK  Name = .\Allicin.pdb
REMARK  7 active torsions:
REMARK  status: ('A' for Active; 'I' for Inactive)
REMARK    1  A    between atoms: C1_1  and  C2_2
REMARK    2  A    between atoms: C2_2  and  O1_10
REMARK    3  A    between atoms: C3_3  and  C4_4
REMARK    4  A    between atoms: C4_4  and  S1_5
REMARK    5  A    between atoms: S1_5  and  S2_6
REMARK    6  A    between atoms: S2_6  and  C5_7
REMARK    7  A    between atoms: C5_7  and  C6_8
REMARK                            x       y       z     vdW  Elec       q    Type
REMARK                         _______ _______ _______ _____ _____    ______ ____
ROOT
ATOM      1  C4  UNL     1     -15.810  77.617  63.847  0.00  0.00    +0.000 C 
ENDROOT
BRANCH   1   4
ATOM      2  C1  UNL     1     -16.331  74.332  61.875  0.00  0.00    +0.000 C 
ATOM      3  C2  UNL     1     -15.715  75.381  62.752  0.00  0.00    +0.000 C 
ATOM      4  C3  UNL     1     -16.365  76.532  62.971  0.00  0.00    +0.000 C 
BRANCH   3   5
ATOM      5  O1  UNL     1     -14.477  75.150  63.350  0.00  0.00    +0.000 OA
ATOM      6  H12 UNL     1     -13.832  75.907  63.546  0.00  0.00    +0.000 HD
ENDBRANCH   3   5
ENDBRANCH   1   4
BRANCH   1   7
ATOM      7  S1  UNL     1     -16.191  79.267  63.165  0.00  0.00    +0.000 S 
BRANCH   7   8
ATOM      8  S2  UNL     1     -16.184  78.610  61.129  0.00  0.00    +0.000 S 
BRANCH   8   9
ATOM      9  C5  UNL     1     -14.374  78.718  60.953  0.00  0.00    +0.000 C 
BRANCH   9  10
ATOM     10  C6  UNL     1     -13.844  77.471  60.306  0.00  0.00    +0.000 C 
ATOM     11  C7  UNL     1     -14.582  76.743  59.462  0.00  0.00    +0.000 C 
ENDBRANCH   9  10
ENDBRANCH   8   9
ENDBRANCH   7   8
ENDBRANCH   1   7
TORSDOF 6
ENDMDL
MODEL 7
REMARK VINA RESULT:      -3.0      3.091      4.174
REMARK  Name = .\Allicin.pdb
REMARK  7 active torsions:
REMARK  status: ('A' for Active; 'I' for Inactive)
REMARK    1  A    between atoms: C1_1  and  C2_2
REMARK    2  A    between atoms: C2_2  and  O1_10
REMARK    3  A    between atoms: C3_3  and  C4_4
REMARK    4  A    between atoms: C4_4  and  S1_5
REMARK    5  A    between atoms: S1_5  and  S2_6
REMARK    6  A    between atoms: S2_6  and  C5_7
REMARK    7  A    between atoms: C5_7  and  C6_8
REMARK                            x       y       z     vdW  Elec       q    Type
REMARK                         _______ _______ _______ _____ _____    ______ ____
ROOT
ATOM      1  C4  UNL     1     -13.835  77.022  61.332  0.00  0.00    +0.000 C 
ENDROOT
BRANCH   1   4
ATOM      2  C1  UNL     1     -16.536  74.367  62.112  0.00  0.00    +0.000 C 
ATOM      3  C2  UNL     1     -15.303  75.214  62.217  0.00  0.00    +0.000 C 
ATOM      4  C3  UNL     1     -15.045  76.134  61.279  0.00  0.00    +0.000 C 
BRANCH   3   5
ATOM      5  O1  UNL     1     -14.437  75.052  63.299  0.00  0.00    +0.000 OA
ATOM      6  H12 UNL     1     -13.808  74.261  63.360  0.00  0.00    +0.000 HD
ENDBRANCH   3   5
ENDBRANCH   1   4
BRANCH   1   7
ATOM      7  S1  UNL     1     -14.265  78.676  61.974  0.00  0.00    +0.000 S 
BRANCH   7   8
ATOM      8  S2  UNL     1     -16.311  78.566  61.358  0.00  0.00    +0.000 S 
BRANCH   8   9
ATOM      9  C5  UNL     1     -16.973  79.054  62.984  0.00  0.00    +0.000 C 
BRANCH   9  10
ATOM     10  C6  UNL     1     -16.256  78.313  64.076  0.00  0.00    +0.000 C 
ATOM     11  C7  UNL     1     -16.852  77.349  64.786  0.00  0.00    +0.000 C 
ENDBRANCH   9  10
ENDBRANCH   8   9
ENDBRANCH   7   8
ENDBRANCH   1   7
TORSDOF 6
ENDMDL
MODEL 8
REMARK VINA RESULT:      -3.0      1.772      2.175
REMARK  Name = .\Allicin.pdb
REMARK  7 active torsions:
REMARK  status: ('A' for Active; 'I' for Inactive)
REMARK    1  A    between atoms: C1_1  and  C2_2
REMARK    2  A    between atoms: C2_2  and  O1_10
REMARK    3  A    between atoms: C3_3  and  C4_4
REMARK    4  A    between atoms: C4_4  and  S1_5
REMARK    5  A    between atoms: S1_5  and  S2_6
REMARK    6  A    between atoms: S2_6  and  C5_7
REMARK    7  A    between atoms: C5_7  and  C6_8
REMARK                            x       y       z     vdW  Elec       q    Type
REMARK                         _______ _______ _______ _____ _____    ______ ____
ROOT
ATOM      1  C4  UNL     1     -14.636  76.429  61.704  0.00  0.00    +0.000 C 
ENDROOT
BRANCH   1   4
ATOM      2  C1  UNL     1     -13.758  77.680  58.151  0.00  0.00    +0.000 C 
ATOM      3  C2  UNL     1     -14.253  76.815  59.273  0.00  0.00    +0.000 C 
ATOM      4  C3  UNL     1     -14.149  77.240  60.538  0.00  0.00    +0.000 C 
BRANCH   3   5
ATOM      5  O1  UNL     1     -14.835  75.579  58.993  0.00  0.00    +0.000 OA
ATOM      6  H12 UNL     1     -14.505  74.726  59.431  0.00  0.00    +0.000 HD
ENDBRANCH   3   5
ENDBRANCH   1   4
BRANCH   1   7
ATOM      7  S1  UNL     1     -15.237  77.510  63.047  0.00  0.00    +0.000 S 
BRANCH   7   8
ATOM      8  S2  UNL     1     -14.807  79.327  62.002  0.00  0.00    +0.000 S 
BRANCH   8   9
ATOM      9  C5  UNL     1     -16.462  80.040  62.273  0.00  0.00    +0.000 C 
BRANCH   9  10
ATOM     10  C6  UNL     1     -17.505  79.187  61.609  0.00  0.00    +0.000 C 
ATOM     11  C7  UNL     1     -17.429  78.856  60.317  0.00  0.00    +0.000 C 
ENDBRANCH   9  10
ENDBRANCH   8   9
ENDBRANCH   7   8
ENDBRANCH   1   7
TORSDOF 6
ENDMDL
MODEL 9
REMARK VINA RESULT:      -3.0      2.091      2.500
REMARK  Name = .\Allicin.pdb
REMARK  7 active torsions:
REMARK  status: ('A' for Active; 'I' for Inactive)
REMARK    1  A    between atoms: C1_1  and  C2_2
REMARK    2  A    between atoms: C2_2  and  O1_10
REMARK    3  A    between atoms: C3_3  and  C4_4
REMARK    4  A    between atoms: C4_4  and  S1_5
REMARK    5  A    between atoms: S1_5  and  S2_6
REMARK    6  A    between atoms: S2_6  and  C5_7
REMARK    7  A    between atoms: C5_7  and  C6_8
REMARK                            x       y       z     vdW  Elec       q    Type
REMARK                         _______ _______ _______ _____ _____    ______ ____
ROOT
ATOM      1  C4  UNL     1     -15.309  75.310  61.998  0.00  0.00    +0.000 C 
ENDROOT
BRANCH   1   4
ATOM      2  C1  UNL     1     -14.164  77.542  59.055  0.00  0.00    +0.000 C 
ATOM      3  C2  UNL     1     -14.717  76.382  59.828  0.00  0.00    +0.000 C 
ATOM      4  C3  UNL     1     -14.757  76.431  61.166  0.00  0.00    +0.000 C 
BRANCH   3   5
ATOM      5  O1  UNL     1     -15.202  75.263  59.152  0.00  0.00    +0.000 OA
ATOM      6  H12 UNL     1     -14.870  74.329  59.364  0.00  0.00    +0.000 HD
ENDBRANCH   3   5
ENDBRANCH   1   4
BRANCH   1   7
ATOM      7  S1  UNL     1     -16.116  75.951  63.505  0.00  0.00    +0.000 S 
BRANCH   7   8
ATOM      8  S2  UNL     1     -17.235  77.451  62.469  0.00  0.00    +0.000 S 
BRANCH   8   9
ATOM      9  C5  UNL     1     -16.709  78.804  63.571  0.00  0.00    +0.000 C 
BRANCH   9  10
ATOM     10  C6  UNL     1     -15.977  79.854  62.785  0.00  0.00    +0.000 C 
ATOM     11  C7  UNL     1     -15.274  80.821  63.381  0.00  0.00    +0.000 C 
ENDBRANCH   9  10
ENDBRANCH   8   9
ENDBRANCH   7   8
ENDBRANCH   1   7
TORSDOF 6
ENDMDL
