MODEL 1
REMARK VINA RESULT:      -3.8      0.000      0.000
REMARK  Name = .\Allicin.pdb
REMARK  7 active torsions:
REMARK  status: ('A' for Active; 'I' for Inactive)
REMARK    1  A    between atoms: C1_1  and  C2_2
REMARK    2  A    between atoms: C2_2  and  O1_10
REMARK    3  A    between atoms: C3_3  and  C4_4
REMARK    4  A    between atoms: C4_4  and  S1_5
REMARK    5  A    between atoms: S1_5  and  S2_6
REMARK    6  A    between atoms: S2_6  and  C5_7
REMARK    7  A    between atoms: C5_7  and  C6_8
REMARK                            x       y       z     vdW  Elec       q    Type
REMARK                         _______ _______ _______ _____ _____    ______ ____
ROOT
ATOM      1  C4  UNL     1     -19.297  86.591 126.474  0.00  0.00    +0.000 C 
ENDROOT
BRANCH   1   4
ATOM      2  C1  UNL     1     -20.109  88.249 129.872  0.00  0.00    +0.000 C 
ATOM      3  C2  UNL     1     -20.125  87.927 128.407  0.00  0.00    +0.000 C 
ATOM      4  C3  UNL     1     -19.321  86.970 127.927  0.00  0.00    +0.000 C 
BRANCH   3   5
ATOM      5  O1  UNL     1     -20.989  88.612 127.553  0.00  0.00    +0.000 OA
ATOM      6  H12 UNL     1     -20.686  89.428 127.035  0.00  0.00    +0.000 HD
ENDBRANCH   3   5
ENDBRANCH   1   4
BRANCH   1   7
ATOM      7  S1  UNL     1     -18.586  84.925 126.245  0.00  0.00    +0.000 S 
BRANCH   7   8
ATOM      8  S2  UNL     1     -20.034  83.955 127.485  0.00  0.00    +0.000 S 
BRANCH   8   9
ATOM      9  C5  UNL     1     -19.219  82.327 127.405  0.00  0.00    +0.000 C 
BRANCH   9  10
ATOM     10  C6  UNL     1     -19.117  81.871 125.978  0.00  0.00    +0.000 C 
ATOM     11  C7  UNL     1     -18.966  80.582 125.657  0.00  0.00    +0.000 C 
ENDBRANCH   9  10
ENDBRANCH   8   9
ENDBRANCH   7   8
ENDBRANCH   1   7
TORSDOF 6
ENDMDL
MODEL 2
REMARK VINA RESULT:      -3.7      2.896      5.856
REMARK  Name = .\Allicin.pdb
REMARK  7 active torsions:
REMARK  status: ('A' for Active; 'I' for Inactive)
REMARK    1  A    between atoms: C1_1  and  C2_2
REMARK    2  A    between atoms: C2_2  and  O1_10
REMARK    3  A    between atoms: C3_3  and  C4_4
REMARK    4  A    between atoms: C4_4  and  S1_5
REMARK    5  A    between atoms: S1_5  and  S2_6
REMARK    6  A    between atoms: S2_6  and  C5_7
REMARK    7  A    between atoms: C5_7  and  C6_8
REMARK                            x       y       z     vdW  Elec       q    Type
REMARK                         _______ _______ _______ _____ _____    ______ ____
ROOT
ATOM      1  C4  UNL     1     -19.070  83.694 125.198  0.00  0.00    +0.000 C 
ENDROOT
BRANCH   1   4
ATOM      2  C1  UNL     1     -20.288  80.364 126.741  0.00  0.00    +0.000 C 
ATOM      3  C2  UNL     1     -19.546  81.347 125.885  0.00  0.00    +0.000 C 
ATOM      4  C3  UNL     1     -19.787  82.658 126.015  0.00  0.00    +0.000 C 
BRANCH   3   5
ATOM      5  O1  UNL     1     -18.598  80.895 124.968  0.00  0.00    +0.000 OA
ATOM      6  H12 UNL     1     -18.853  80.294 124.193  0.00  0.00    +0.000 HD
ENDBRANCH   3   5
ENDBRANCH   1   4
BRANCH   1   7
ATOM      7  S1  UNL     1     -18.717  85.182 126.194  0.00  0.00    +0.000 S 
BRANCH   7   8
ATOM      8  S2  UNL     1     -19.902  84.553 127.860  0.00  0.00    +0.000 S 
BRANCH   8   9
ATOM      9  C5  UNL     1     -19.808  86.159 128.715  0.00  0.00    +0.000 C 
BRANCH   9  10
ATOM     10  C6  UNL     1     -19.494  87.249 127.730  0.00  0.00    +0.000 C 
ATOM     11  C7  UNL     1     -20.157  88.409 127.724  0.00  0.00    +0.000 C 
ENDBRANCH   9  10
ENDBRANCH   8   9
ENDBRANCH   7   8
ENDBRANCH   1   7
TORSDOF 6
ENDMDL
MODEL 3
REMARK VINA RESULT:      -3.7      2.534      3.732
REMARK  Name = .\Allicin.pdb
REMARK  7 active torsions:
REMARK  status: ('A' for Active; 'I' for Inactive)
REMARK    1  A    between atoms: C1_1  and  C2_2
REMARK    2  A    between atoms: C2_2  and  O1_10
REMARK    3  A    between atoms: C3_3  and  C4_4
REMARK    4  A    between atoms: C4_4  and  S1_5
REMARK    5  A    between atoms: S1_5  and  S2_6
REMARK    6  A    between atoms: S2_6  and  C5_7
REMARK    7  A    between atoms: C5_7  and  C6_8
REMARK                            x       y       z     vdW  Elec       q    Type
REMARK                         _______ _______ _______ _____ _____    ______ ____
ROOT
ATOM      1  C4  UNL     1     -19.011  83.583 125.550  0.00  0.00    +0.000 C 
ENDROOT
BRANCH   1   4
ATOM      2  C1  UNL     1     -19.108  87.050 127.261  0.00  0.00    +0.000 C 
ATOM      3  C2  UNL     1     -18.615  85.845 126.517  0.00  0.00    +0.000 C 
ATOM      4  C3  UNL     1     -19.439  84.812 126.298  0.00  0.00    +0.000 C 
BRANCH   3   5
ATOM      5  O1  UNL     1     -17.304  85.809 126.041  0.00  0.00    +0.000 OA
ATOM      6  H12 UNL     1     -17.078  85.415 125.136  0.00  0.00    +0.000 HD
ENDBRANCH   3   5
ENDBRANCH   1   4
BRANCH   1   7
ATOM      7  S1  UNL     1     -18.915  82.140 126.665  0.00  0.00    +0.000 S 
BRANCH   7   8
ATOM      8  S2  UNL     1     -20.686  82.650 127.750  0.00  0.00    +0.000 S 
BRANCH   8   9
ATOM      9  C5  UNL     1     -19.856  82.671 129.372  0.00  0.00    +0.000 C 
BRANCH   9  10
ATOM     10  C6  UNL     1     -20.363  83.820 130.196  0.00  0.00    +0.000 C 
ATOM     11  C7  UNL     1     -19.723  84.992 130.244  0.00  0.00    +0.000 C 
ENDBRANCH   9  10
ENDBRANCH   8   9
ENDBRANCH   7   8
ENDBRANCH   1   7
TORSDOF 6
ENDMDL
MODEL 4
REMARK VINA RESULT:      -3.7      2.754      4.958
REMARK  Name = .\Allicin.pdb
REMARK  7 active torsions:
REMARK  status: ('A' for Active; 'I' for Inactive)
REMARK    1  A    between atoms: C1_1  and  C2_2
REMARK    2  A    between atoms: C2_2  and  O1_10
REMARK    3  A    between atoms: C3_3  and  C4_4
REMARK    4  A    between atoms: C4_4  and  S1_5
REMARK    5  A    between atoms: S1_5  and  S2_6
REMARK    6  A    between atoms: S2_6  and  C5_7
REMARK    7  A    between atoms: C5_7  and  C6_8
REMARK                            x       y       z     vdW  Elec       q    Type
REMARK                         _______ _______ _______ _____ _____    ______ ____
ROOT
ATOM      1  C4  UNL     1     -19.772  81.584 126.941  0.00  0.00    +0.000 C 
ENDROOT
BRANCH   1   4
ATOM      2  C1  UNL     1     -18.305  84.881 125.551  0.00  0.00    +0.000 C 
ATOM      3  C2  UNL     1     -19.161  83.659 125.705  0.00  0.00    +0.000 C 
ATOM      4  C3  UNL     1     -18.944  82.818 126.723  0.00  0.00    +0.000 C 
BRANCH   3   5
ATOM      5  O1  UNL     1     -20.190  83.411 124.796  0.00  0.00    +0.000 OA
ATOM      6  H12 UNL     1     -20.806  82.613 124.897  0.00  0.00    +0.000 HD
ENDBRANCH   3   5
ENDBRANCH   1   4
BRANCH   1   7
ATOM      7  S1  UNL     1     -21.191  81.933 128.035  0.00  0.00    +0.000 S 
BRANCH   7   8
ATOM      8  S2  UNL     1     -20.001  82.832 129.569  0.00  0.00    +0.000 S 
BRANCH   8   9
ATOM      9  C5  UNL     1     -20.750  84.482 129.379  0.00  0.00    +0.000 C 
BRANCH   9  10
ATOM     10  C6  UNL     1     -19.686  85.540 129.433  0.00  0.00    +0.000 C 
ATOM     11  C7  UNL     1     -19.692  86.591 128.608  0.00  0.00    +0.000 C 
ENDBRANCH   9  10
ENDBRANCH   8   9
ENDBRANCH   7   8
ENDBRANCH   1   7
TORSDOF 6
ENDMDL
MODEL 5
REMARK VINA RESULT:      -3.6      2.747      6.228
REMARK  Name = .\Allicin.pdb
REMARK  7 active torsions:
REMARK  status: ('A' for Active; 'I' for Inactive)
REMARK    1  A    between atoms: C1_1  and  C2_2
REMARK    2  A    between atoms: C2_2  and  O1_10
REMARK    3  A    between atoms: C3_3  and  C4_4
REMARK    4  A    between atoms: C4_4  and  S1_5
REMARK    5  A    between atoms: S1_5  and  S2_6
REMARK    6  A    between atoms: S2_6  and  C5_7
REMARK    7  A    between atoms: C5_7  and  C6_8
REMARK                            x       y       z     vdW  Elec       q    Type
REMARK                         _______ _______ _______ _____ _____    ______ ____
ROOT
ATOM      1  C4  UNL     1     -19.015  81.666 125.877  0.00  0.00    +0.000 C 
ENDROOT
BRANCH   1   4
ATOM      2  C1  UNL     1     -22.262  80.012 124.580  0.00  0.00    +0.000 C 
ATOM      3  C2  UNL     1     -21.201  81.035 124.860  0.00  0.00    +0.000 C 
ATOM      4  C3  UNL     1     -20.118  80.694 125.571  0.00  0.00    +0.000 C 
BRANCH   3   5
ATOM      5  O1  UNL     1     -21.338  82.332 124.368  0.00  0.00    +0.000 OA
ATOM      6  H12 UNL     1     -20.795  83.102 124.743  0.00  0.00    +0.000 HD
ENDBRANCH   3   5
ENDBRANCH   1   4
BRANCH   1   7
ATOM      7  S1  UNL     1     -19.388  82.624 127.384  0.00  0.00    +0.000 S 
BRANCH   7   8
ATOM      8  S2  UNL     1     -19.328  84.520 126.395  0.00  0.00    +0.000 S 
BRANCH   8   9
ATOM      9  C5  UNL     1     -19.674  85.478 127.907  0.00  0.00    +0.000 C 
BRANCH   9  10
ATOM     10  C6  UNL     1     -19.043  86.837 127.811  0.00  0.00    +0.000 C 
ATOM     11  C7  UNL     1     -19.768  87.940 127.601  0.00  0.00    +0.000 C 
ENDBRANCH   9  10
ENDBRANCH   8   9
ENDBRANCH   7   8
ENDBRANCH   1   7
TORSDOF 6
ENDMDL
MODEL 6
REMARK VINA RESULT:      -3.6      2.132      2.695
REMARK  Name = .\Allicin.pdb
REMARK  7 active torsions:
REMARK  status: ('A' for Active; 'I' for Inactive)
REMARK    1  A    between atoms: C1_1  and  C2_2
REMARK    2  A    between atoms: C2_2  and  O1_10
REMARK    3  A    between atoms: C3_3  and  C4_4
REMARK    4  A    between atoms: C4_4  and  S1_5
REMARK    5  A    between atoms: S1_5  and  S2_6
REMARK    6  A    between atoms: S2_6  and  C5_7
REMARK    7  A    between atoms: C5_7  and  C6_8
REMARK                            x       y       z     vdW  Elec       q    Type
REMARK                         _______ _______ _______ _____ _____    ______ ____
ROOT
ATOM      1  C4  UNL     1     -18.434  85.083 126.488  0.00  0.00    +0.000 C 
ENDROOT
BRANCH   1   4
ATOM      2  C1  UNL     1     -20.162  88.301 127.759  0.00  0.00    +0.000 C 
ATOM      3  C2  UNL     1     -19.390  87.015 127.737  0.00  0.00    +0.000 C 
ATOM      4  C3  UNL     1     -19.206  86.367 126.580  0.00  0.00    +0.000 C 
BRANCH   3   5
ATOM      5  O1  UNL     1     -18.854  86.506 128.920  0.00  0.00    +0.000 OA
ATOM      6  H12 UNL     1     -17.942  86.792 129.256  0.00  0.00    +0.000 HD
ENDBRANCH   3   5
ENDBRANCH   1   4
BRANCH   1   7
ATOM      7  S1  UNL     1     -19.346  83.840 125.511  0.00  0.00    +0.000 S 
BRANCH   7   8
ATOM      8  S2  UNL     1     -19.113  82.285 126.962  0.00  0.00    +0.000 S 
BRANCH   8   9
ATOM      9  C5  UNL     1     -20.330  82.990 128.120  0.00  0.00    +0.000 C 
BRANCH   9  10
ATOM     10  C6  UNL     1     -19.733  83.096 129.494  0.00  0.00    +0.000 C 
ATOM     11  C7  UNL     1     -20.115  82.296 130.494  0.00  0.00    +0.000 C 
ENDBRANCH   9  10
ENDBRANCH   8   9
ENDBRANCH   7   8
ENDBRANCH   1   7
TORSDOF 6
ENDMDL
MODEL 7
REMARK VINA RESULT:      -3.6      2.821      3.413
REMARK  Name = .\Allicin.pdb
REMARK  7 active torsions:
REMARK  status: ('A' for Active; 'I' for Inactive)
REMARK    1  A    between atoms: C1_1  and  C2_2
REMARK    2  A    between atoms: C2_2  and  O1_10
REMARK    3  A    between atoms: C3_3  and  C4_4
REMARK    4  A    between atoms: C4_4  and  S1_5
REMARK    5  A    between atoms: S1_5  and  S2_6
REMARK    6  A    between atoms: S2_6  and  C5_7
REMARK    7  A    between atoms: C5_7  and  C6_8
REMARK                            x       y       z     vdW  Elec       q    Type
REMARK                         _______ _______ _______ _____ _____    ______ ____
ROOT
ATOM      1  C4  UNL     1     -19.114  83.582 125.531  0.00  0.00    +0.000 C 
ENDROOT
BRANCH   1   4
ATOM      2  C1  UNL     1     -19.070  86.986 127.366  0.00  0.00    +0.000 C 
ATOM      3  C2  UNL     1     -18.636  85.805 126.550  0.00  0.00    +0.000 C 
ATOM      4  C3  UNL     1     -19.482  84.787 126.347  0.00  0.00    +0.000 C 
BRANCH   3   5
ATOM      5  O1  UNL     1     -17.357  85.776 125.993  0.00  0.00    +0.000 OA
ATOM      6  H12 UNL     1     -16.968  84.926 125.603  0.00  0.00    +0.000 HD
ENDBRANCH   3   5
ENDBRANCH   1   4
BRANCH   1   7
ATOM      7  S1  UNL     1     -18.835  82.129 126.601  0.00  0.00    +0.000 S 
BRANCH   7   8
ATOM      8  S2  UNL     1     -20.913  81.654 126.781  0.00  0.00    +0.000 S 
BRANCH   8   9
ATOM      9  C5  UNL     1     -21.025  80.887 125.132  0.00  0.00    +0.000 C 
BRANCH   9  10
ATOM     10  C6  UNL     1     -22.067  81.587 124.308  0.00  0.00    +0.000 C 
ATOM     11  C7  UNL     1     -22.743  80.959 123.341  0.00  0.00    +0.000 C 
ENDBRANCH   9  10
ENDBRANCH   8   9
ENDBRANCH   7   8
ENDBRANCH   1   7
TORSDOF 6
ENDMDL
MODEL 8
REMARK VINA RESULT:      -3.5      2.489      3.025
REMARK  Name = .\Allicin.pdb
REMARK  7 active torsions:
REMARK  status: ('A' for Active; 'I' for Inactive)
REMARK    1  A    between atoms: C1_1  and  C2_2
REMARK    2  A    between atoms: C2_2  and  O1_10
REMARK    3  A    between atoms: C3_3  and  C4_4
REMARK    4  A    between atoms: C4_4  and  S1_5
REMARK    5  A    between atoms: S1_5  and  S2_6
REMARK    6  A    between atoms: S2_6  and  C5_7
REMARK    7  A    between atoms: C5_7  and  C6_8
REMARK                            x       y       z     vdW  Elec       q    Type
REMARK                         _______ _______ _______ _____ _____    ______ ____
ROOT
ATOM      1  C4  UNL     1     -19.110  83.626 125.451  0.00  0.00    +0.000 C 
ENDROOT
BRANCH   1   4
ATOM      2  C1  UNL     1     -18.941  86.927 127.461  0.00  0.00    +0.000 C 
ATOM      3  C2  UNL     1     -18.559  85.787 126.562  0.00  0.00    +0.000 C 
ATOM      4  C3  UNL     1     -19.425  84.789 126.348  0.00  0.00    +0.000 C 
BRANCH   3   5
ATOM      5  O1  UNL     1     -17.311  85.779 125.942  0.00  0.00    +0.000 OA
ATOM      6  H12 UNL     1     -17.184  86.133 125.001  0.00  0.00    +0.000 HD
ENDBRANCH   3   5
ENDBRANCH   1   4
BRANCH   1   7
ATOM      7  S1  UNL     1     -18.883  82.096 126.420  0.00  0.00    +0.000 S 
BRANCH   7   8
ATOM      8  S2  UNL     1     -20.189  82.706 128.002  0.00  0.00    +0.000 S 
BRANCH   8   9
ATOM      9  C5  UNL     1     -21.576  81.662 127.448  0.00  0.00    +0.000 C 
BRANCH   9  10
ATOM     10  C6  UNL     1     -21.088  80.632 126.471  0.00  0.00    +0.000 C 
ATOM     11  C7  UNL     1     -21.929  79.923 125.712  0.00  0.00    +0.000 C 
ENDBRANCH   9  10
ENDBRANCH   8   9
ENDBRANCH   7   8
ENDBRANCH   1   7
TORSDOF 6
ENDMDL
MODEL 9
REMARK VINA RESULT:      -3.5      2.433      6.034
REMARK  Name = .\Allicin.pdb
REMARK  7 active torsions:
REMARK  status: ('A' for Active; 'I' for Inactive)
REMARK    1  A    between atoms: C1_1  and  C2_2
REMARK    2  A    between atoms: C2_2  and  O1_10
REMARK    3  A    between atoms: C3_3  and  C4_4
REMARK    4  A    between atoms: C4_4  and  S1_5
REMARK    5  A    between atoms: S1_5  and  S2_6
REMARK    6  A    between atoms: S2_6  and  C5_7
REMARK    7  A    between atoms: C5_7  and  C6_8
REMARK                            x       y       z     vdW  Elec       q    Type
REMARK                         _______ _______ _______ _____ _____    ______ ____
ROOT
ATOM      1  C4  UNL     1     -19.169  84.900 126.331  0.00  0.00    +0.000 C 
ENDROOT
BRANCH   1   4
ATOM      2  C1  UNL     1     -19.189  81.095 125.639  0.00  0.00    +0.000 C 
ATOM      3  C2  UNL     1     -19.538  82.553 125.582  0.00  0.00    +0.000 C 
ATOM      4  C3  UNL     1     -18.876  83.428 126.350  0.00  0.00    +0.000 C 
BRANCH   3   5
ATOM      5  O1  UNL     1     -20.539  82.995 124.717  0.00  0.00    +0.000 OA
ATOM      6  H12 UNL     1     -21.519  82.809 124.901  0.00  0.00    +0.000 HD
ENDBRANCH   3   5
ENDBRANCH   1   4
BRANCH   1   7
ATOM      7  S1  UNL     1     -19.820  85.457 127.943  0.00  0.00    +0.000 S 
BRANCH   7   8
ATOM      8  S2  UNL     1     -18.778  87.325 127.906  0.00  0.00    +0.000 S 
BRANCH   8   9
ATOM      9  C5  UNL     1     -20.296  88.332 127.846  0.00  0.00    +0.000 C 
BRANCH   9  10
ATOM     10  C6  UNL     1     -20.592  88.899 129.205  0.00  0.00    +0.000 C 
ATOM     11  C7  UNL     1     -20.389  88.197 130.324  0.00  0.00    +0.000 C 
ENDBRANCH   9  10
ENDBRANCH   8   9
ENDBRANCH   7   8
ENDBRANCH   1   7
TORSDOF 6
ENDMDL
