MODEL 1
REMARK VINA RESULT:       4.8      0.000      0.000
REMARK  Name = .\Allicin.pdb
REMARK  7 active torsions:
REMARK  status: ('A' for Active; 'I' for Inactive)
REMARK    1  A    between atoms: C1_1  and  C2_2
REMARK    2  A    between atoms: C2_2  and  O1_10
REMARK    3  A    between atoms: C3_3  and  C4_4
REMARK    4  A    between atoms: C4_4  and  S1_5
REMARK    5  A    between atoms: S1_5  and  S2_6
REMARK    6  A    between atoms: S2_6  and  C5_7
REMARK    7  A    between atoms: C5_7  and  C6_8
REMARK                            x       y       z     vdW  Elec       q    Type
REMARK                         _______ _______ _______ _____ _____    ______ ____
ROOT
ATOM      1  C4  UNL     1      -5.738  80.503  62.282  0.00  0.00    +0.000 C 
ENDROOT
BRANCH   1   4
ATOM      2  C1  UNL     1      -4.727  84.109  61.320  0.00  0.00    +0.000 C 
ATOM      3  C2  UNL     1      -5.397  82.768  61.301  0.00  0.00    +0.000 C 
ATOM      4  C3  UNL     1      -5.095  81.859  62.237  0.00  0.00    +0.000 C 
BRANCH   3   5
ATOM      5  O1  UNL     1      -6.343  82.476  60.319  0.00  0.00    +0.000 OA
ATOM      6  H12 UNL     1      -7.116  83.102  60.125  0.00  0.00    +0.000 HD
ENDBRANCH   3   5
ENDBRANCH   1   4
BRANCH   1   7
ATOM      7  S1  UNL     1      -5.822  79.875  63.994  0.00  0.00    +0.000 S 
BRANCH   7   8
ATOM      8  S2  UNL     1      -3.796  80.382  64.456  0.00  0.00    +0.000 S 
BRANCH   8   9
ATOM      9  C5  UNL     1      -4.246  81.744  65.581  0.00  0.00    +0.000 C 
BRANCH   9  10
ATOM     10  C6  UNL     1      -3.150  82.770  65.610  0.00  0.00    +0.000 C 
ATOM     11  C7  UNL     1      -3.136  83.814  64.776  0.00  0.00    +0.000 C 
ENDBRANCH   9  10
ENDBRANCH   8   9
ENDBRANCH   7   8
ENDBRANCH   1   7
TORSDOF 6
ENDMDL
MODEL 2
REMARK VINA RESULT:       7.2      2.701      4.661
REMARK  Name = .\Allicin.pdb
REMARK  7 active torsions:
REMARK  status: ('A' for Active; 'I' for Inactive)
REMARK    1  A    between atoms: C1_1  and  C2_2
REMARK    2  A    between atoms: C2_2  and  O1_10
REMARK    3  A    between atoms: C3_3  and  C4_4
REMARK    4  A    between atoms: C4_4  and  S1_5
REMARK    5  A    between atoms: S1_5  and  S2_6
REMARK    6  A    between atoms: S2_6  and  C5_7
REMARK    7  A    between atoms: C5_7  and  C6_8
REMARK                            x       y       z     vdW  Elec       q    Type
REMARK                         _______ _______ _______ _____ _____    ______ ____
ROOT
ATOM      1  C4  UNL     1      -4.374  82.685  64.162  0.00  0.00    +0.000 C 
ENDROOT
BRANCH   1   4
ATOM      2  C1  UNL     1      -3.213  79.179  65.310  0.00  0.00    +0.000 C 
ATOM      3  C2  UNL     1      -4.006  80.271  64.655  0.00  0.00    +0.000 C 
ATOM      4  C3  UNL     1      -3.631  81.548  64.801  0.00  0.00    +0.000 C 
BRANCH   3   5
ATOM      5  O1  UNL     1      -5.123  79.951  63.882  0.00  0.00    +0.000 OA
ATOM      6  H12 UNL     1      -5.256  79.021  63.502  0.00  0.00    +0.000 HD
ENDBRANCH   3   5
ENDBRANCH   1   4
BRANCH   1   7
ATOM      7  S1  UNL     1      -3.269  84.109  63.877  0.00  0.00    +0.000 S 
BRANCH   7   8
ATOM      8  S2  UNL     1      -3.471  84.052  61.748  0.00  0.00    +0.000 S 
BRANCH   8   9
ATOM      9  C5  UNL     1      -5.215  83.526  61.786  0.00  0.00    +0.000 C 
BRANCH   9  10
ATOM     10  C6  UNL     1      -5.407  82.316  60.917  0.00  0.00    +0.000 C 
ATOM     11  C7  UNL     1      -5.589  81.097  61.433  0.00  0.00    +0.000 C 
ENDBRANCH   9  10
ENDBRANCH   8   9
ENDBRANCH   7   8
ENDBRANCH   1   7
TORSDOF 6
ENDMDL
MODEL 3
REMARK VINA RESULT:       7.4      1.587      1.910
REMARK  Name = .\Allicin.pdb
REMARK  7 active torsions:
REMARK  status: ('A' for Active; 'I' for Inactive)
REMARK    1  A    between atoms: C1_1  and  C2_2
REMARK    2  A    between atoms: C2_2  and  O1_10
REMARK    3  A    between atoms: C3_3  and  C4_4
REMARK    4  A    between atoms: C4_4  and  S1_5
REMARK    5  A    between atoms: S1_5  and  S2_6
REMARK    6  A    between atoms: S2_6  and  C5_7
REMARK    7  A    between atoms: C5_7  and  C6_8
REMARK                            x       y       z     vdW  Elec       q    Type
REMARK                         _______ _______ _______ _____ _____    ______ ____
ROOT
ATOM      1  C4  UNL     1      -5.978  81.596  61.610  0.00  0.00    +0.000 C 
ENDROOT
BRANCH   1   4
ATOM      2  C1  UNL     1      -3.137  84.109  60.857  0.00  0.00    +0.000 C 
ATOM      3  C2  UNL     1      -4.201  83.342  61.585  0.00  0.00    +0.000 C 
ATOM      4  C3  UNL     1      -4.909  82.407  60.938  0.00  0.00    +0.000 C 
BRANCH   3   5
ATOM      5  O1  UNL     1      -4.440  83.593  62.936  0.00  0.00    +0.000 OA
ATOM      6  H12 UNL     1      -3.983  84.355  63.422  0.00  0.00    +0.000 HD
ENDBRANCH   3   5
ENDBRANCH   1   4
BRANCH   1   7
ATOM      7  S1  UNL     1      -5.411  79.887  61.910  0.00  0.00    +0.000 S 
BRANCH   7   8
ATOM      8  S2  UNL     1      -5.679  79.992  64.030  0.00  0.00    +0.000 S 
BRANCH   8   9
ATOM      9  C5  UNL     1      -3.964  80.509  64.363  0.00  0.00    +0.000 C 
BRANCH   9  10
ATOM     10  C6  UNL     1      -3.907  81.328  65.620  0.00  0.00    +0.000 C 
ATOM     11  C7  UNL     1      -3.477  82.594  65.621  0.00  0.00    +0.000 C 
ENDBRANCH   9  10
ENDBRANCH   8   9
ENDBRANCH   7   8
ENDBRANCH   1   7
TORSDOF 6
ENDMDL
MODEL 4
REMARK VINA RESULT:       7.5      1.676      3.296
REMARK  Name = .\Allicin.pdb
REMARK  7 active torsions:
REMARK  status: ('A' for Active; 'I' for Inactive)
REMARK    1  A    between atoms: C1_1  and  C2_2
REMARK    2  A    between atoms: C2_2  and  O1_10
REMARK    3  A    between atoms: C3_3  and  C4_4
REMARK    4  A    between atoms: C4_4  and  S1_5
REMARK    5  A    between atoms: S1_5  and  S2_6
REMARK    6  A    between atoms: S2_6  and  C5_7
REMARK    7  A    between atoms: C5_7  and  C6_8
REMARK                            x       y       z     vdW  Elec       q    Type
REMARK                         _______ _______ _______ _____ _____    ______ ____
ROOT
ATOM      1  C4  UNL     1      -4.507  83.131  64.027  0.00  0.00    +0.000 C 
ENDROOT
BRANCH   1   4
ATOM      2  C1  UNL     1      -3.177  84.109  60.530  0.00  0.00    +0.000 C 
ATOM      3  C2  UNL     1      -4.111  83.737  61.643  0.00  0.00    +0.000 C 
ATOM      4  C3  UNL     1      -3.626  83.496  62.868  0.00  0.00    +0.000 C 
BRANCH   3   5
ATOM      5  O1  UNL     1      -5.483  83.659  61.404  0.00  0.00    +0.000 OA
ATOM      6  H12 UNL     1      -5.864  83.040  60.697  0.00  0.00    +0.000 HD
ENDBRANCH   3   5
ENDBRANCH   1   4
BRANCH   1   7
ATOM      7  S1  UNL     1      -3.531  82.399  65.385  0.00  0.00    +0.000 S 
BRANCH   7   8
ATOM      8  S2  UNL     1      -3.912  80.379  64.793  0.00  0.00    +0.000 S 
BRANCH   8   9
ATOM      9  C5  UNL     1      -5.455  80.780  63.910  0.00  0.00    +0.000 C 
BRANCH   9  10
ATOM     10  C6  UNL     1      -5.730  79.746  62.857  0.00  0.00    +0.000 C 
ATOM     11  C7  UNL     1      -6.628  78.773  63.039  0.00  0.00    +0.000 C 
ENDBRANCH   9  10
ENDBRANCH   8   9
ENDBRANCH   7   8
ENDBRANCH   1   7
TORSDOF 6
ENDMDL
MODEL 5
REMARK VINA RESULT:       7.6      1.939      2.982
REMARK  Name = .\Allicin.pdb
REMARK  7 active torsions:
REMARK  status: ('A' for Active; 'I' for Inactive)
REMARK    1  A    between atoms: C1_1  and  C2_2
REMARK    2  A    between atoms: C2_2  and  O1_10
REMARK    3  A    between atoms: C3_3  and  C4_4
REMARK    4  A    between atoms: C4_4  and  S1_5
REMARK    5  A    between atoms: S1_5  and  S2_6
REMARK    6  A    between atoms: S2_6  and  C5_7
REMARK    7  A    between atoms: C5_7  and  C6_8
REMARK                            x       y       z     vdW  Elec       q    Type
REMARK                         _______ _______ _______ _____ _____    ______ ____
ROOT
ATOM      1  C4  UNL     1      -3.378  83.352  62.821  0.00  0.00    +0.000 C 
ENDROOT
BRANCH   1   4
ATOM      2  C1  UNL     1      -6.193  84.109  60.279  0.00  0.00    +0.000 C 
ATOM      3  C2  UNL     1      -5.265  83.366  61.194  0.00  0.00    +0.000 C 
ATOM      4  C3  UNL     1      -4.329  84.034  61.881  0.00  0.00    +0.000 C 
BRANCH   3   5
ATOM      5  O1  UNL     1      -5.389  81.984  61.338  0.00  0.00    +0.000 OA
ATOM      6  H12 UNL     1      -6.250  81.560  61.662  0.00  0.00    +0.000 HD
ENDBRANCH   3   5
ENDBRANCH   1   4
BRANCH   1   7
ATOM      7  S1  UNL     1      -3.444  84.109  64.480  0.00  0.00    +0.000 S 
BRANCH   7   8
ATOM      8  S2  UNL     1      -3.219  82.253  65.519  0.00  0.00    +0.000 S 
BRANCH   8   9
ATOM      9  C5  UNL     1      -4.848  81.611  65.014  0.00  0.00    +0.000 C 
BRANCH   9  10
ATOM     10  C6  UNL     1      -4.688  80.294  64.312  0.00  0.00    +0.000 C 
ATOM     11  C7  UNL     1      -5.643  79.791  63.524  0.00  0.00    +0.000 C 
ENDBRANCH   9  10
ENDBRANCH   8   9
ENDBRANCH   7   8
ENDBRANCH   1   7
TORSDOF 6
ENDMDL
MODEL 6
REMARK VINA RESULT:       7.7      2.393      3.209
REMARK  Name = .\Allicin.pdb
REMARK  7 active torsions:
REMARK  status: ('A' for Active; 'I' for Inactive)
REMARK    1  A    between atoms: C1_1  and  C2_2
REMARK    2  A    between atoms: C2_2  and  O1_10
REMARK    3  A    between atoms: C3_3  and  C4_4
REMARK    4  A    between atoms: C4_4  and  S1_5
REMARK    5  A    between atoms: S1_5  and  S2_6
REMARK    6  A    between atoms: S2_6  and  C5_7
REMARK    7  A    between atoms: C5_7  and  C6_8
REMARK                            x       y       z     vdW  Elec       q    Type
REMARK                         _______ _______ _______ _____ _____    ______ ____
ROOT
ATOM      1  C4  UNL     1      -5.688  82.442  60.869  0.00  0.00    +0.000 C 
ENDROOT
BRANCH   1   4
ATOM      2  C1  UNL     1      -5.745  79.746  63.641  0.00  0.00    +0.000 C 
ATOM      3  C2  UNL     1      -5.374  80.501  62.399  0.00  0.00    +0.000 C 
ATOM      4  C3  UNL     1      -6.019  81.633  62.090  0.00  0.00    +0.000 C 
BRANCH   3   5
ATOM      5  O1  UNL     1      -4.349  80.030  61.579  0.00  0.00    +0.000 OA
ATOM      6  H12 UNL     1      -3.699  80.662  61.127  0.00  0.00    +0.000 HD
ENDBRANCH   3   5
ENDBRANCH   1   4
BRANCH   1   7
ATOM      7  S1  UNL     1      -5.105  84.109  61.327  0.00  0.00    +0.000 S 
BRANCH   7   8
ATOM      8  S2  UNL     1      -3.303  83.408  62.244  0.00  0.00    +0.000 S 
BRANCH   8   9
ATOM      9  C5  UNL     1      -3.697  84.107  63.880  0.00  0.00    +0.000 C 
BRANCH   9  10
ATOM     10  C6  UNL     1      -3.135  83.232  64.963  0.00  0.00    +0.000 C 
ATOM     11  C7  UNL     1      -3.642  82.025  65.231  0.00  0.00    +0.000 C 
ENDBRANCH   9  10
ENDBRANCH   8   9
ENDBRANCH   7   8
ENDBRANCH   1   7
TORSDOF 6
ENDMDL
