MODEL 1
REMARK VINA RESULT:      -2.9      0.000      0.000
REMARK  Name = .\Allicin.pdb
REMARK  7 active torsions:
REMARK  status: ('A' for Active; 'I' for Inactive)
REMARK    1  A    between atoms: C1_1  and  C2_2
REMARK    2  A    between atoms: C2_2  and  O1_10
REMARK    3  A    between atoms: C3_3  and  C4_4
REMARK    4  A    between atoms: C4_4  and  S1_5
REMARK    5  A    between atoms: S1_5  and  S2_6
REMARK    6  A    between atoms: S2_6  and  C5_7
REMARK    7  A    between atoms: C5_7  and  C6_8
REMARK                            x       y       z     vdW  Elec       q    Type
REMARK                         _______ _______ _______ _____ _____    ______ ____
ROOT
ATOM      1  C4  UNL     1      15.232  94.443  86.799  0.00  0.00    +0.000 C 
ENDROOT
BRANCH   1   4
ATOM      2  C1  UNL     1      12.050  93.608  84.765  0.00  0.00    +0.000 C 
ATOM      3  C2  UNL     1      12.983  93.832  85.919  0.00  0.00    +0.000 C 
ATOM      4  C3  UNL     1      14.252  94.192  85.690  0.00  0.00    +0.000 C 
BRANCH   3   5
ATOM      5  O1  UNL     1      12.521  93.681  87.226  0.00  0.00    +0.000 OA
ATOM      6  H12 UNL     1      12.882  94.247  87.985  0.00  0.00    +0.000 HD
ENDBRANCH   3   5
ENDBRANCH   1   4
BRANCH   1   7
ATOM      7  S1  UNL     1      16.899  93.857  86.343  0.00  0.00    +0.000 S 
BRANCH   7   8
ATOM      8  S2  UNL     1      16.305  93.147  84.415  0.00  0.00    +0.000 S 
BRANCH   8   9
ATOM      9  C5  UNL     1      16.479  91.387  84.854  0.00  0.00    +0.000 C 
BRANCH   9  10
ATOM     10  C6  UNL     1      15.207  90.651  84.543  0.00  0.00    +0.000 C 
ATOM     11  C7  UNL     1      14.322  90.336  85.494  0.00  0.00    +0.000 C 
ENDBRANCH   9  10
ENDBRANCH   8   9
ENDBRANCH   7   8
ENDBRANCH   1   7
TORSDOF 6
ENDMDL
MODEL 2
REMARK VINA RESULT:      -2.9      1.841      2.951
REMARK  Name = .\Allicin.pdb
REMARK  7 active torsions:
REMARK  status: ('A' for Active; 'I' for Inactive)
REMARK    1  A    between atoms: C1_1  and  C2_2
REMARK    2  A    between atoms: C2_2  and  O1_10
REMARK    3  A    between atoms: C3_3  and  C4_4
REMARK    4  A    between atoms: C4_4  and  S1_5
REMARK    5  A    between atoms: S1_5  and  S2_6
REMARK    6  A    between atoms: S2_6  and  C5_7
REMARK    7  A    between atoms: C5_7  and  C6_8
REMARK                            x       y       z     vdW  Elec       q    Type
REMARK                         _______ _______ _______ _____ _____    ______ ____
ROOT
ATOM      1  C4  UNL     1      13.473  93.927  85.753  0.00  0.00    +0.000 C 
ENDROOT
BRANCH   1   4
ATOM      2  C1  UNL     1      14.171  90.238  84.826  0.00  0.00    +0.000 C 
ATOM      3  C2  UNL     1      13.531  91.459  85.417  0.00  0.00    +0.000 C 
ATOM      4  C3  UNL     1      14.070  92.666  85.200  0.00  0.00    +0.000 C 
BRANCH   3   5
ATOM      5  O1  UNL     1      12.369  91.336  86.178  0.00  0.00    +0.000 OA
ATOM      6  H12 UNL     1      11.460  91.580  85.802  0.00  0.00    +0.000 HD
ENDBRANCH   3   5
ENDBRANCH   1   4
BRANCH   1   7
ATOM      7  S1  UNL     1      14.666  94.800  86.824  0.00  0.00    +0.000 S 
BRANCH   7   8
ATOM      8  S2  UNL     1      16.284  94.641  85.435  0.00  0.00    +0.000 S 
BRANCH   8   9
ATOM      9  C5  UNL     1      17.480  94.056  86.679  0.00  0.00    +0.000 C 
BRANCH   9  10
ATOM     10  C6  UNL     1      18.224  92.861  86.157  0.00  0.00    +0.000 C 
ATOM     11  C7  UNL     1      17.660  91.991  85.313  0.00  0.00    +0.000 C 
ENDBRANCH   9  10
ENDBRANCH   8   9
ENDBRANCH   7   8
ENDBRANCH   1   7
TORSDOF 6
ENDMDL
MODEL 3
REMARK VINA RESULT:      -2.8      3.415      4.701
REMARK  Name = .\Allicin.pdb
REMARK  7 active torsions:
REMARK  status: ('A' for Active; 'I' for Inactive)
REMARK    1  A    between atoms: C1_1  and  C2_2
REMARK    2  A    between atoms: C2_2  and  O1_10
REMARK    3  A    between atoms: C3_3  and  C4_4
REMARK    4  A    between atoms: C4_4  and  S1_5
REMARK    5  A    between atoms: S1_5  and  S2_6
REMARK    6  A    between atoms: S2_6  and  C5_7
REMARK    7  A    between atoms: C5_7  and  C6_8
REMARK                            x       y       z     vdW  Elec       q    Type
REMARK                         _______ _______ _______ _____ _____    ______ ____
ROOT
ATOM      1  C4  UNL     1      17.168  92.879  85.594  0.00  0.00    +0.000 C 
ENDROOT
BRANCH   1   4
ATOM      2  C1  UNL     1      20.855  93.010  86.753  0.00  0.00    +0.000 C 
ATOM      3  C2  UNL     1      19.586  92.551  86.100  0.00  0.00    +0.000 C 
ATOM      4  C3  UNL     1      18.468  93.276  86.232  0.00  0.00    +0.000 C 
BRANCH   3   5
ATOM      5  O1  UNL     1      19.577  91.378  85.344  0.00  0.00    +0.000 OA
ATOM      6  H12 UNL     1      18.722  91.015  84.938  0.00  0.00    +0.000 HD
ENDBRANCH   3   5
ENDBRANCH   1   4
BRANCH   1   7
ATOM      7  S1  UNL     1      15.812  93.973  86.136  0.00  0.00    +0.000 S 
BRANCH   7   8
ATOM      8  S2  UNL     1      14.324  92.993  84.953  0.00  0.00    +0.000 S 
BRANCH   8   9
ATOM      9  C5  UNL     1      15.326  91.496  84.679  0.00  0.00    +0.000 C 
BRANCH   9  10
ATOM     10  C6  UNL     1      14.552  90.276  85.088  0.00  0.00    +0.000 C 
ATOM     11  C7  UNL     1      13.365  90.362  85.695  0.00  0.00    +0.000 C 
ENDBRANCH   9  10
ENDBRANCH   8   9
ENDBRANCH   7   8
ENDBRANCH   1   7
TORSDOF 6
ENDMDL
MODEL 4
REMARK VINA RESULT:      -2.8      2.974      4.038
REMARK  Name = .\Allicin.pdb
REMARK  7 active torsions:
REMARK  status: ('A' for Active; 'I' for Inactive)
REMARK    1  A    between atoms: C1_1  and  C2_2
REMARK    2  A    between atoms: C2_2  and  O1_10
REMARK    3  A    between atoms: C3_3  and  C4_4
REMARK    4  A    between atoms: C4_4  and  S1_5
REMARK    5  A    between atoms: S1_5  and  S2_6
REMARK    6  A    between atoms: S2_6  and  C5_7
REMARK    7  A    between atoms: C5_7  and  C6_8
REMARK                            x       y       z     vdW  Elec       q    Type
REMARK                         _______ _______ _______ _____ _____    ______ ____
ROOT
ATOM      1  C4  UNL     1      16.032  93.059  83.340  0.00  0.00    +0.000 C 
ENDROOT
BRANCH   1   4
ATOM      2  C1  UNL     1      14.474  90.241  85.482  0.00  0.00    +0.000 C 
ATOM      3  C2  UNL     1      15.339  90.960  84.490  0.00  0.00    +0.000 C 
ATOM      4  C3  UNL     1      15.191  92.279  84.308  0.00  0.00    +0.000 C 
BRANCH   3   5
ATOM      5  O1  UNL     1      16.306  90.257  83.772  0.00  0.00    +0.000 OA
ATOM      6  H12 UNL     1      16.133  89.930  82.829  0.00  0.00    +0.000 HD
ENDBRANCH   3   5
ENDBRANCH   1   4
BRANCH   1   7
ATOM      7  S1  UNL     1      16.224  94.790  83.889  0.00  0.00    +0.000 S 
BRANCH   7   8
ATOM      8  S2  UNL     1      18.348  94.662  84.102  0.00  0.00    +0.000 S 
BRANCH   8   9
ATOM      9  C5  UNL     1      18.295  94.450  85.912  0.00  0.00    +0.000 C 
BRANCH   9  10
ATOM     10  C6  UNL     1      18.315  92.990  86.260  0.00  0.00    +0.000 C 
ATOM     11  C7  UNL     1      18.972  92.094  85.517  0.00  0.00    +0.000 C 
ENDBRANCH   9  10
ENDBRANCH   8   9
ENDBRANCH   7   8
ENDBRANCH   1   7
TORSDOF 6
ENDMDL
MODEL 5
REMARK VINA RESULT:      -2.6      2.066      2.947
REMARK  Name = .\Allicin.pdb
REMARK  7 active torsions:
REMARK  status: ('A' for Active; 'I' for Inactive)
REMARK    1  A    between atoms: C1_1  and  C2_2
REMARK    2  A    between atoms: C2_2  and  O1_10
REMARK    3  A    between atoms: C3_3  and  C4_4
REMARK    4  A    between atoms: C4_4  and  S1_5
REMARK    5  A    between atoms: S1_5  and  S2_6
REMARK    6  A    between atoms: S2_6  and  C5_7
REMARK    7  A    between atoms: C5_7  and  C6_8
REMARK                            x       y       z     vdW  Elec       q    Type
REMARK                         _______ _______ _______ _____ _____    ______ ____
ROOT
ATOM      1  C4  UNL     1      14.394  93.694  85.876  0.00  0.00    +0.000 C 
ENDROOT
BRANCH   1   4
ATOM      2  C1  UNL     1      13.734  90.017  84.876  0.00  0.00    +0.000 C 
ATOM      3  C2  UNL     1      13.549  91.389  85.454  0.00  0.00    +0.000 C 
ATOM      4  C3  UNL     1      14.521  92.301  85.331  0.00  0.00    +0.000 C 
BRANCH   3   5
ATOM      5  O1  UNL     1      12.358  91.715  86.103  0.00  0.00    +0.000 OA
ATOM      6  H12 UNL     1      11.854  91.035  86.660  0.00  0.00    +0.000 HD
ENDBRANCH   3   5
ENDBRANCH   1   4
BRANCH   1   7
ATOM      7  S1  UNL     1      15.968  94.255  86.611  0.00  0.00    +0.000 S 
BRANCH   7   8
ATOM      8  S2  UNL     1      17.161  92.819  85.565  0.00  0.00    +0.000 S 
BRANCH   8   9
ATOM      9  C5  UNL     1      18.010  94.063  84.539  0.00  0.00    +0.000 C 
BRANCH   9  10
ATOM     10  C6  UNL     1      17.900  93.696  83.087  0.00  0.00    +0.000 C 
ATOM     11  C7  UNL     1      16.836  93.051  82.600  0.00  0.00    +0.000 C 
ENDBRANCH   9  10
ENDBRANCH   8   9
ENDBRANCH   7   8
ENDBRANCH   1   7
TORSDOF 6
ENDMDL
MODEL 6
REMARK VINA RESULT:      -2.6      3.696      4.978
REMARK  Name = .\Allicin.pdb
REMARK  7 active torsions:
REMARK  status: ('A' for Active; 'I' for Inactive)
REMARK    1  A    between atoms: C1_1  and  C2_2
REMARK    2  A    between atoms: C2_2  and  O1_10
REMARK    3  A    between atoms: C3_3  and  C4_4
REMARK    4  A    between atoms: C4_4  and  S1_5
REMARK    5  A    between atoms: S1_5  and  S2_6
REMARK    6  A    between atoms: S2_6  and  C5_7
REMARK    7  A    between atoms: C5_7  and  C6_8
REMARK                            x       y       z     vdW  Elec       q    Type
REMARK                         _______ _______ _______ _____ _____    ______ ____
ROOT
ATOM      1  C4  UNL     1      17.933  94.009  83.948  0.00  0.00    +0.000 C 
ENDROOT
BRANCH   1   4
ATOM      2  C1  UNL     1      20.393  91.960  86.118  0.00  0.00    +0.000 C 
ATOM      3  C2  UNL     1      19.748  92.614  84.932  0.00  0.00    +0.000 C 
ATOM      4  C3  UNL     1      18.621  93.320  85.091  0.00  0.00    +0.000 C 
BRANCH   3   5
ATOM      5  O1  UNL     1      20.332  92.499  83.671  0.00  0.00    +0.000 OA
ATOM      6  H12 UNL     1      20.521  91.595  83.254  0.00  0.00    +0.000 HD
ENDBRANCH   3   5
ENDBRANCH   1   4
BRANCH   1   7
ATOM      7  S1  UNL     1      16.638  92.944  83.227  0.00  0.00    +0.000 S 
BRANCH   7   8
ATOM      8  S2  UNL     1      15.593  92.679  85.074  0.00  0.00    +0.000 S 
BRANCH   8   9
ATOM      9  C5  UNL     1      15.729  90.862  85.053  0.00  0.00    +0.000 C 
BRANCH   9  10
ATOM     10  C6  UNL     1      14.376  90.247  84.834  0.00  0.00    +0.000 C 
ATOM     11  C7  UNL     1      13.370  90.427  85.694  0.00  0.00    +0.000 C 
ENDBRANCH   9  10
ENDBRANCH   8   9
ENDBRANCH   7   8
ENDBRANCH   1   7
TORSDOF 6
ENDMDL
MODEL 7
REMARK VINA RESULT:      -2.3      2.225      3.961
REMARK  Name = .\Allicin.pdb
REMARK  7 active torsions:
REMARK  status: ('A' for Active; 'I' for Inactive)
REMARK    1  A    between atoms: C1_1  and  C2_2
REMARK    2  A    between atoms: C2_2  and  O1_10
REMARK    3  A    between atoms: C3_3  and  C4_4
REMARK    4  A    between atoms: C4_4  and  S1_5
REMARK    5  A    between atoms: S1_5  and  S2_6
REMARK    6  A    between atoms: S2_6  and  C5_7
REMARK    7  A    between atoms: C5_7  and  C6_8
REMARK                            x       y       z     vdW  Elec       q    Type
REMARK                         _______ _______ _______ _____ _____    ______ ____
ROOT
ATOM      1  C4  UNL     1      16.918  92.950  83.384  0.00  0.00    +0.000 C 
ENDROOT
BRANCH   1   4
ATOM      2  C1  UNL     1      14.813  90.346  85.319  0.00  0.00    +0.000 C 
ATOM      3  C2  UNL     1      15.824  91.410  85.008  0.00  0.00    +0.000 C 
ATOM      4  C3  UNL     1      15.936  91.878  83.759  0.00  0.00    +0.000 C 
BRANCH   3   5
ATOM      5  O1  UNL     1      16.633  91.919  86.024  0.00  0.00    +0.000 OA
ATOM      6  H12 UNL     1      17.642  91.940  85.938  0.00  0.00    +0.000 HD
ENDBRANCH   3   5
ENDBRANCH   1   4
BRANCH   1   7
ATOM      7  S1  UNL     1      16.146  94.192  82.293  0.00  0.00    +0.000 S 
BRANCH   7   8
ATOM      8  S2  UNL     1      14.286  94.209  83.351  0.00  0.00    +0.000 S 
BRANCH   8   9
ATOM      9  C5  UNL     1      14.938  95.151  84.767  0.00  0.00    +0.000 C 
BRANCH   9  10
ATOM     10  C6  UNL     1      14.310  94.666  86.042  0.00  0.00    +0.000 C 
ATOM     11  C7  UNL     1      13.207  93.911  86.044  0.00  0.00    +0.000 C 
ENDBRANCH   9  10
ENDBRANCH   8   9
ENDBRANCH   7   8
ENDBRANCH   1   7
TORSDOF 6
ENDMDL
MODEL 8
REMARK VINA RESULT:      -2.3      2.766      3.761
REMARK  Name = .\Allicin.pdb
REMARK  7 active torsions:
REMARK  status: ('A' for Active; 'I' for Inactive)
REMARK    1  A    between atoms: C1_1  and  C2_2
REMARK    2  A    between atoms: C2_2  and  O1_10
REMARK    3  A    between atoms: C3_3  and  C4_4
REMARK    4  A    between atoms: C4_4  and  S1_5
REMARK    5  A    between atoms: S1_5  and  S2_6
REMARK    6  A    between atoms: S2_6  and  C5_7
REMARK    7  A    between atoms: C5_7  and  C6_8
REMARK                            x       y       z     vdW  Elec       q    Type
REMARK                         _______ _______ _______ _____ _____    ______ ____
ROOT
ATOM      1  C4  UNL     1      15.762  93.752  84.206  0.00  0.00    +0.000 C 
ENDROOT
BRANCH   1   4
ATOM      2  C1  UNL     1      19.117  93.694  86.129  0.00  0.00    +0.000 C 
ATOM      3  C2  UNL     1      17.715  93.371  85.706  0.00  0.00    +0.000 C 
ATOM      4  C3  UNL     1      17.156  94.035  84.686  0.00  0.00    +0.000 C 
BRANCH   3   5
ATOM      5  O1  UNL     1      17.002  92.371  86.366  0.00  0.00    +0.000 OA
ATOM      6  H12 UNL     1      17.459  91.718  86.992  0.00  0.00    +0.000 HD
ENDBRANCH   3   5
ENDBRANCH   1   4
BRANCH   1   7
ATOM      7  S1  UNL     1      14.536  94.713  85.156  0.00  0.00    +0.000 S 
BRANCH   7   8
ATOM      8  S2  UNL     1      13.267  93.034  85.536  0.00  0.00    +0.000 S 
BRANCH   8   9
ATOM      9  C5  UNL     1      13.922  92.047  84.152  0.00  0.00    +0.000 C 
BRANCH   9  10
ATOM     10  C6  UNL     1      13.888  90.586  84.499  0.00  0.00    +0.000 C 
ATOM     11  C7  UNL     1      14.291  90.133  85.690  0.00  0.00    +0.000 C 
ENDBRANCH   9  10
ENDBRANCH   8   9
ENDBRANCH   7   8
ENDBRANCH   1   7
TORSDOF 6
ENDMDL
MODEL 9
REMARK VINA RESULT:      -2.1      3.259      4.284
REMARK  Name = .\Allicin.pdb
REMARK  7 active torsions:
REMARK  status: ('A' for Active; 'I' for Inactive)
REMARK    1  A    between atoms: C1_1  and  C2_2
REMARK    2  A    between atoms: C2_2  and  O1_10
REMARK    3  A    between atoms: C3_3  and  C4_4
REMARK    4  A    between atoms: C4_4  and  S1_5
REMARK    5  A    between atoms: S1_5  and  S2_6
REMARK    6  A    between atoms: S2_6  and  C5_7
REMARK    7  A    between atoms: C5_7  and  C6_8
REMARK                            x       y       z     vdW  Elec       q    Type
REMARK                         _______ _______ _______ _____ _____    ______ ____
ROOT
ATOM      1  C4  UNL     1      16.768  92.075  84.805  0.00  0.00    +0.000 C 
ENDROOT
BRANCH   1   4
ATOM      2  C1  UNL     1      13.033  91.402  85.551  0.00  0.00    +0.000 C 
ATOM      3  C2  UNL     1      14.515  91.207  85.419  0.00  0.00    +0.000 C 
ATOM      4  C3  UNL     1      15.279  92.202  84.951  0.00  0.00    +0.000 C 
BRANCH   3   5
ATOM      5  O1  UNL     1      15.093  89.996  85.798  0.00  0.00    +0.000 OA
ATOM      6  H12 UNL     1      16.094  89.846  85.742  0.00  0.00    +0.000 HD
ENDBRANCH   3   5
ENDBRANCH   1   4
BRANCH   1   7
ATOM      7  S1  UNL     1      17.544  93.712  84.581  0.00  0.00    +0.000 S 
BRANCH   7   8
ATOM      8  S2  UNL     1      19.013  93.410  86.107  0.00  0.00    +0.000 S 
BRANCH   8   9
ATOM      9  C5  UNL     1      20.138  92.460  85.033  0.00  0.00    +0.000 C 
BRANCH   9  10
ATOM     10  C6  UNL     1      21.428  92.189  85.751  0.00  0.00    +0.000 C 
ATOM     11  C7  UNL     1      21.489  92.085  87.082  0.00  0.00    +0.000 C 
ENDBRANCH   9  10
ENDBRANCH   8   9
ENDBRANCH   7   8
ENDBRANCH   1   7
TORSDOF 6
ENDMDL
