MODEL 1
REMARK VINA RESULT:       7.0      0.000      0.000
REMARK  Name = .\Allicin.pdb
REMARK  7 active torsions:
REMARK  status: ('A' for Active; 'I' for Inactive)
REMARK    1  A    between atoms: C1_1  and  C2_2
REMARK    2  A    between atoms: C2_2  and  O1_10
REMARK    3  A    between atoms: C3_3  and  C4_4
REMARK    4  A    between atoms: C4_4  and  S1_5
REMARK    5  A    between atoms: S1_5  and  S2_6
REMARK    6  A    between atoms: S2_6  and  C5_7
REMARK    7  A    between atoms: C5_7  and  C6_8
REMARK                            x       y       z     vdW  Elec       q    Type
REMARK                         _______ _______ _______ _____ _____    ______ ____
ROOT
ATOM      1  C4  UNL     1      -1.161  54.502  28.787  0.00  0.00    +0.000 C 
ENDROOT
BRANCH   1   4
ATOM      2  C1  UNL     1       1.837  56.193  30.550  0.00  0.00    +0.000 C 
ATOM      3  C2  UNL     1       1.011  55.475  29.524  0.00  0.00    +0.000 C 
ATOM      4  C3  UNL     1      -0.277  55.206  29.775  0.00  0.00    +0.000 C 
BRANCH   3   5
ATOM      5  O1  UNL     1       1.581  55.103  28.307  0.00  0.00    +0.000 OA
ATOM      6  H12 UNL     1       2.585  55.112  28.167  0.00  0.00    +0.000 HD
ENDBRANCH   3   5
ENDBRANCH   1   4
BRANCH   1   7
ATOM      7  S1  UNL     1      -1.286  55.448  27.231  0.00  0.00    +0.000 S 
BRANCH   7   8
ATOM      8  S2  UNL     1      -1.804  53.747  26.042  0.00  0.00    +0.000 S 
BRANCH   8   9
ATOM      9  C5  UNL     1      -0.817  52.578  27.033  0.00  0.00    +0.000 C 
BRANCH   9  10
ATOM     10  C6  UNL     1       0.482  52.284  26.339  0.00  0.00    +0.000 C 
ATOM     11  C7  UNL     1       1.446  53.203  26.225  0.00  0.00    +0.000 C 
ENDBRANCH   9  10
ENDBRANCH   8   9
ENDBRANCH   7   8
ENDBRANCH   1   7
TORSDOF 6
ENDMDL
MODEL 2
REMARK VINA RESULT:       7.8      1.587      3.768
REMARK  Name = .\Allicin.pdb
REMARK  7 active torsions:
REMARK  status: ('A' for Active; 'I' for Inactive)
REMARK    1  A    between atoms: C1_1  and  C2_2
REMARK    2  A    between atoms: C2_2  and  O1_10
REMARK    3  A    between atoms: C3_3  and  C4_4
REMARK    4  A    between atoms: C4_4  and  S1_5
REMARK    5  A    between atoms: S1_5  and  S2_6
REMARK    6  A    between atoms: S2_6  and  C5_7
REMARK    7  A    between atoms: C5_7  and  C6_8
REMARK                            x       y       z     vdW  Elec       q    Type
REMARK                         _______ _______ _______ _____ _____    ______ ____
ROOT
ATOM      1  C4  UNL     1      -1.422  55.399  26.885  0.00  0.00    +0.000 C 
ENDROOT
BRANCH   1   4
ATOM      2  C1  UNL     1       0.848  52.283  26.566  0.00  0.00    +0.000 C 
ATOM      3  C2  UNL     1       0.398  53.702  26.755  0.00  0.00    +0.000 C 
ATOM      4  C3  UNL     1      -0.905  54.002  26.692  0.00  0.00    +0.000 C 
BRANCH   3   5
ATOM      5  O1  UNL     1       1.337  54.701  27.011  0.00  0.00    +0.000 OA
ATOM      6  H12 UNL     1       1.980  54.637  27.792  0.00  0.00    +0.000 HD
ENDBRANCH   3   5
ENDBRANCH   1   4
BRANCH   1   7
ATOM      7  S1  UNL     1      -1.640  55.777  28.657  0.00  0.00    +0.000 S 
BRANCH   7   8
ATOM      8  S2  UNL     1      -1.246  53.776  29.303  0.00  0.00    +0.000 S 
BRANCH   8   9
ATOM      9  C5  UNL     1      -0.018  54.271  30.555  0.00  0.00    +0.000 C 
BRANCH   9  10
ATOM     10  C6  UNL     1       0.497  55.649  30.254  0.00  0.00    +0.000 C 
ATOM     11  C7  UNL     1       1.787  55.969  30.395  0.00  0.00    +0.000 C 
ENDBRANCH   9  10
ENDBRANCH   8   9
ENDBRANCH   7   8
ENDBRANCH   1   7
TORSDOF 6
ENDMDL
MODEL 3
REMARK VINA RESULT:       7.9      1.898      2.577
REMARK  Name = .\Allicin.pdb
REMARK  7 active torsions:
REMARK  status: ('A' for Active; 'I' for Inactive)
REMARK    1  A    between atoms: C1_1  and  C2_2
REMARK    2  A    between atoms: C2_2  and  O1_10
REMARK    3  A    between atoms: C3_3  and  C4_4
REMARK    4  A    between atoms: C4_4  and  S1_5
REMARK    5  A    between atoms: S1_5  and  S2_6
REMARK    6  A    between atoms: S2_6  and  C5_7
REMARK    7  A    between atoms: C5_7  and  C6_8
REMARK                            x       y       z     vdW  Elec       q    Type
REMARK                         _______ _______ _______ _____ _____    ______ ____
ROOT
ATOM      1  C4  UNL     1       0.834  54.804  27.207  0.00  0.00    +0.000 C 
ENDROOT
BRANCH   1   4
ATOM      2  C1  UNL     1       1.824  55.960  30.762  0.00  0.00    +0.000 C 
ATOM      3  C2  UNL     1       0.999  55.587  29.566  0.00  0.00    +0.000 C 
ATOM      4  C3  UNL     1       1.601  55.201  28.434  0.00  0.00    +0.000 C 
BRANCH   3   5
ATOM      5  O1  UNL     1      -0.393  55.628  29.641  0.00  0.00    +0.000 OA
ATOM      6  H12 UNL     1      -0.907  56.490  29.496  0.00  0.00    +0.000 HD
ENDBRANCH   3   5
ENDBRANCH   1   4
BRANCH   1   7
ATOM      7  S1  UNL     1       1.349  53.154  26.619  0.00  0.00    +0.000 S 
BRANCH   7   8
ATOM      8  S2  UNL     1      -0.650  52.441  26.353  0.00  0.00    +0.000 S 
BRANCH   8   9
ATOM      9  C5  UNL     1      -1.427  53.940  27.039  0.00  0.00    +0.000 C 
BRANCH   9  10
ATOM     10  C6  UNL     1      -2.072  53.629  28.359  0.00  0.00    +0.000 C 
ATOM     11  C7  UNL     1      -1.559  52.726  29.200  0.00  0.00    +0.000 C 
ENDBRANCH   9  10
ENDBRANCH   8   9
ENDBRANCH   7   8
ENDBRANCH   1   7
TORSDOF 6
ENDMDL
MODEL 4
REMARK VINA RESULT:       7.9      1.971      3.122
REMARK  Name = .\Allicin.pdb
REMARK  7 active torsions:
REMARK  status: ('A' for Active; 'I' for Inactive)
REMARK    1  A    between atoms: C1_1  and  C2_2
REMARK    2  A    between atoms: C2_2  and  O1_10
REMARK    3  A    between atoms: C3_3  and  C4_4
REMARK    4  A    between atoms: C4_4  and  S1_5
REMARK    5  A    between atoms: S1_5  and  S2_6
REMARK    6  A    between atoms: S2_6  and  C5_7
REMARK    7  A    between atoms: C5_7  and  C6_8
REMARK                            x       y       z     vdW  Elec       q    Type
REMARK                         _______ _______ _______ _____ _____    ______ ____
ROOT
ATOM      1  C4  UNL     1       0.158  55.263  29.787  0.00  0.00    +0.000 C 
ENDROOT
BRANCH   1   4
ATOM      2  C1  UNL     1      -2.829  54.314  27.522  0.00  0.00    +0.000 C 
ATOM      3  C2  UNL     1      -1.707  54.212  28.511  0.00  0.00    +0.000 C 
ATOM      4  C3  UNL     1      -0.971  55.294  28.798  0.00  0.00    +0.000 C 
BRANCH   3   5
ATOM      5  O1  UNL     1      -1.442  52.997  29.142  0.00  0.00    +0.000 OA
ATOM      6  H12 UNL     1      -2.020  52.180  28.983  0.00  0.00    +0.000 HD
ENDBRANCH   3   5
ENDBRANCH   1   4
BRANCH   1   7
ATOM      7  S1  UNL     1       1.772  55.217  28.935  0.00  0.00    +0.000 S 
BRANCH   7   8
ATOM      8  S2  UNL     1       0.924  54.988  26.984  0.00  0.00    +0.000 S 
BRANCH   8   9
ATOM      9  C5  UNL     1       1.784  53.418  26.641  0.00  0.00    +0.000 C 
BRANCH   9  10
ATOM     10  C6  UNL     1       0.796  52.288  26.599  0.00  0.00    +0.000 C 
ATOM     11  C7  UNL     1      -0.337  52.365  25.894  0.00  0.00    +0.000 C 
ENDBRANCH   9  10
ENDBRANCH   8   9
ENDBRANCH   7   8
ENDBRANCH   1   7
TORSDOF 6
ENDMDL
MODEL 5
REMARK VINA RESULT:       8.6      1.989      2.511
REMARK  Name = .\Allicin.pdb
REMARK  7 active torsions:
REMARK  status: ('A' for Active; 'I' for Inactive)
REMARK    1  A    between atoms: C1_1  and  C2_2
REMARK    2  A    between atoms: C2_2  and  O1_10
REMARK    3  A    between atoms: C3_3  and  C4_4
REMARK    4  A    between atoms: C4_4  and  S1_5
REMARK    5  A    between atoms: S1_5  and  S2_6
REMARK    6  A    between atoms: S2_6  and  C5_7
REMARK    7  A    between atoms: C5_7  and  C6_8
REMARK                            x       y       z     vdW  Elec       q    Type
REMARK                         _______ _______ _______ _____ _____    ______ ____
ROOT
ATOM      1  C4  UNL     1       0.858  54.808  27.262  0.00  0.00    +0.000 C 
ENDROOT
BRANCH   1   4
ATOM      2  C1  UNL     1       1.839  56.072  30.783  0.00  0.00    +0.000 C 
ATOM      3  C2  UNL     1       1.017  55.642  29.604  0.00  0.00    +0.000 C 
ATOM      4  C3  UNL     1       1.622  55.260  28.473  0.00  0.00    +0.000 C 
BRANCH   3   5
ATOM      5  O1  UNL     1      -0.375  55.627  29.695  0.00  0.00    +0.000 OA
ATOM      6  H12 UNL     1      -0.949  56.269  29.161  0.00  0.00    +0.000 HD
ENDBRANCH   3   5
ENDBRANCH   1   4
BRANCH   1   7
ATOM      7  S1  UNL     1       1.609  53.310  26.538  0.00  0.00    +0.000 S 
BRANCH   7   8
ATOM      8  S2  UNL     1      -0.262  52.318  26.232  0.00  0.00    +0.000 S 
BRANCH   8   9
ATOM      9  C5  UNL     1      -1.096  53.162  27.614  0.00  0.00    +0.000 C 
BRANCH   9  10
ATOM     10  C6  UNL     1      -2.209  54.026  27.094  0.00  0.00    +0.000 C 
ATOM     11  C7  UNL     1      -1.971  55.172  26.450  0.00  0.00    +0.000 C 
ENDBRANCH   9  10
ENDBRANCH   8   9
ENDBRANCH   7   8
ENDBRANCH   1   7
TORSDOF 6
ENDMDL
MODEL 6
REMARK VINA RESULT:       9.2      1.888      2.371
REMARK  Name = .\Allicin.pdb
REMARK  7 active torsions:
REMARK  status: ('A' for Active; 'I' for Inactive)
REMARK    1  A    between atoms: C1_1  and  C2_2
REMARK    2  A    between atoms: C2_2  and  O1_10
REMARK    3  A    between atoms: C3_3  and  C4_4
REMARK    4  A    between atoms: C4_4  and  S1_5
REMARK    5  A    between atoms: S1_5  and  S2_6
REMARK    6  A    between atoms: S2_6  and  C5_7
REMARK    7  A    between atoms: C5_7  and  C6_8
REMARK                            x       y       z     vdW  Elec       q    Type
REMARK                         _______ _______ _______ _____ _____    ______ ____
ROOT
ATOM      1  C4  UNL     1      -1.280  54.662  28.516  0.00  0.00    +0.000 C 
ENDROOT
BRANCH   1   4
ATOM      2  C1  UNL     1       1.839  55.861  30.463  0.00  0.00    +0.000 C 
ATOM      3  C2  UNL     1       0.956  55.378  29.351  0.00  0.00    +0.000 C 
ATOM      4  C3  UNL     1      -0.340  55.136  29.587  0.00  0.00    +0.000 C 
BRANCH   3   5
ATOM      5  O1  UNL     1       1.483  55.196  28.073  0.00  0.00    +0.000 OA
ATOM      6  H12 UNL     1       1.479  55.942  27.387  0.00  0.00    +0.000 HD
ENDBRANCH   3   5
ENDBRANCH   1   4
BRANCH   1   7
ATOM      7  S1  UNL     1      -1.233  52.844  28.363  0.00  0.00    +0.000 S 
BRANCH   7   8
ATOM      8  S2  UNL     1      -0.727  52.865  26.285  0.00  0.00    +0.000 S 
BRANCH   8   9
ATOM      9  C5  UNL     1      -1.327  54.564  26.012  0.00  0.00    +0.000 C 
BRANCH   9  10
ATOM     10  C6  UNL     1      -2.562  54.543  25.159  0.00  0.00    +0.000 C 
ATOM     11  C7  UNL     1      -3.405  53.506  25.160  0.00  0.00    +0.000 C 
ENDBRANCH   9  10
ENDBRANCH   8   9
ENDBRANCH   7   8
ENDBRANCH   1   7
TORSDOF 6
ENDMDL
MODEL 7
REMARK VINA RESULT:       9.4      1.386      4.098
REMARK  Name = .\Allicin.pdb
REMARK  7 active torsions:
REMARK  status: ('A' for Active; 'I' for Inactive)
REMARK    1  A    between atoms: C1_1  and  C2_2
REMARK    2  A    between atoms: C2_2  and  O1_10
REMARK    3  A    between atoms: C3_3  and  C4_4
REMARK    4  A    between atoms: C4_4  and  S1_5
REMARK    5  A    between atoms: S1_5  and  S2_6
REMARK    6  A    between atoms: S2_6  and  C5_7
REMARK    7  A    between atoms: C5_7  and  C6_8
REMARK                            x       y       z     vdW  Elec       q    Type
REMARK                         _______ _______ _______ _____ _____    ______ ____
ROOT
ATOM      1  C4  UNL     1      -1.091  52.911  28.785  0.00  0.00    +0.000 C 
ENDROOT
BRANCH   1   4
ATOM      2  C1  UNL     1       0.647  52.283  25.388  0.00  0.00    +0.000 C 
ATOM      3  C2  UNL     1       0.216  52.943  26.664  0.00  0.00    +0.000 C 
ATOM      4  C3  UNL     1      -0.630  52.311  27.488  0.00  0.00    +0.000 C 
BRANCH   3   5
ATOM      5  O1  UNL     1       0.709  54.204  26.996  0.00  0.00    +0.000 OA
ATOM      6  H12 UNL     1       1.671  54.464  26.811  0.00  0.00    +0.000 HD
ENDBRANCH   3   5
ENDBRANCH   1   4
BRANCH   1   7
ATOM      7  S1  UNL     1      -2.281  54.264  28.494  0.00  0.00    +0.000 S 
BRANCH   7   8
ATOM      8  S2  UNL     1      -0.830  55.817  28.734  0.00  0.00    +0.000 S 
BRANCH   8   9
ATOM      9  C5  UNL     1      -0.288  55.250  30.379  0.00  0.00    +0.000 C 
BRANCH   9  10
ATOM     10  C6  UNL     1       1.203  55.376  30.502  0.00  0.00    +0.000 C 
ATOM     11  C7  UNL     1       1.839  56.522  30.242  0.00  0.00    +0.000 C 
ENDBRANCH   9  10
ENDBRANCH   8   9
ENDBRANCH   7   8
ENDBRANCH   1   7
TORSDOF 6
ENDMDL
MODEL 8
REMARK VINA RESULT:       9.7      2.496      3.094
REMARK  Name = .\Allicin.pdb
REMARK  7 active torsions:
REMARK  status: ('A' for Active; 'I' for Inactive)
REMARK    1  A    between atoms: C1_1  and  C2_2
REMARK    2  A    between atoms: C2_2  and  O1_10
REMARK    3  A    between atoms: C3_3  and  C4_4
REMARK    4  A    between atoms: C4_4  and  S1_5
REMARK    5  A    between atoms: S1_5  and  S2_6
REMARK    6  A    between atoms: S2_6  and  C5_7
REMARK    7  A    between atoms: C5_7  and  C6_8
REMARK                            x       y       z     vdW  Elec       q    Type
REMARK                         _______ _______ _______ _____ _____    ______ ____
ROOT
ATOM      1  C4  UNL     1       0.582  54.422  26.938  0.00  0.00    +0.000 C 
ENDROOT
BRANCH   1   4
ATOM      2  C1  UNL     1       1.839  55.812  30.321  0.00  0.00    +0.000 C 
ATOM      3  C2  UNL     1       0.926  55.384  29.210  0.00  0.00    +0.000 C 
ATOM      4  C3  UNL     1       1.441  54.880  28.081  0.00  0.00    +0.000 C 
BRANCH   3   5
ATOM      5  O1  UNL     1      -0.455  55.497  29.363  0.00  0.00    +0.000 OA
ATOM      6  H12 UNL     1      -0.905  55.344  30.258  0.00  0.00    +0.000 HD
ENDBRANCH   3   5
ENDBRANCH   1   4
BRANCH   1   7
ATOM      7  S1  UNL     1      -0.489  53.032  27.440  0.00  0.00    +0.000 S 
BRANCH   7   8
ATOM      8  S2  UNL     1      -2.273  54.210  27.501  0.00  0.00    +0.000 S 
BRANCH   8   9
ATOM      9  C5  UNL     1      -1.988  54.981  25.874  0.00  0.00    +0.000 C 
BRANCH   9  10
ATOM     10  C6  UNL     1      -2.105  56.474  25.984  0.00  0.00    +0.000 C 
ATOM     11  C7  UNL     1      -2.879  57.185  25.159  0.00  0.00    +0.000 C 
ENDBRANCH   9  10
ENDBRANCH   8   9
ENDBRANCH   7   8
ENDBRANCH   1   7
TORSDOF 6
ENDMDL
MODEL 9
REMARK VINA RESULT:       9.8      2.608      4.197
REMARK  Name = .\Allicin.pdb
REMARK  7 active torsions:
REMARK  status: ('A' for Active; 'I' for Inactive)
REMARK    1  A    between atoms: C1_1  and  C2_2
REMARK    2  A    between atoms: C2_2  and  O1_10
REMARK    3  A    between atoms: C3_3  and  C4_4
REMARK    4  A    between atoms: C4_4  and  S1_5
REMARK    5  A    between atoms: S1_5  and  S2_6
REMARK    6  A    between atoms: S2_6  and  C5_7
REMARK    7  A    between atoms: C5_7  and  C6_8
REMARK                            x       y       z     vdW  Elec       q    Type
REMARK                         _______ _______ _______ _____ _____    ______ ____
ROOT
ATOM      1  C4  UNL     1       0.486  54.712  27.196  0.00  0.00    +0.000 C 
ENDROOT
BRANCH   1   4
ATOM      2  C1  UNL     1      -2.375  56.751  25.579  0.00  0.00    +0.000 C 
ATOM      3  C2  UNL     1      -1.627  55.644  26.261  0.00  0.00    +0.000 C 
ATOM      4  C3  UNL     1      -0.317  55.777  26.507  0.00  0.00    +0.000 C 
BRANCH   3   5
ATOM      5  O1  UNL     1      -2.300  54.486  26.649  0.00  0.00    +0.000 OA
ATOM      6  H12 UNL     1      -2.829  54.443  27.513  0.00  0.00    +0.000 HD
ENDBRANCH   3   5
ENDBRANCH   1   4
BRANCH   1   7
ATOM      7  S1  UNL     1      -0.462  53.158  27.324  0.00  0.00    +0.000 S 
BRANCH   7   8
ATOM      8  S2  UNL     1      -1.119  53.528  29.326  0.00  0.00    +0.000 S 
BRANCH   8   9
ATOM      9  C5  UNL     1      -0.431  55.215  29.389  0.00  0.00    +0.000 C 
BRANCH   9  10
ATOM     10  C6  UNL     1       0.538  55.333  30.530  0.00  0.00    +0.000 C 
ATOM     11  C7  UNL     1       1.744  55.888  30.379  0.00  0.00    +0.000 C 
ENDBRANCH   9  10
ENDBRANCH   8   9
ENDBRANCH   7   8
ENDBRANCH   1   7
TORSDOF 6
ENDMDL
