MODEL 1
REMARK VINA RESULT:      -4.2      0.000      0.000
REMARK  Name = .\Allicin.pdb
REMARK  7 active torsions:
REMARK  status: ('A' for Active; 'I' for Inactive)
REMARK    1  A    between atoms: C1_1  and  C2_2
REMARK    2  A    between atoms: C2_2  and  O1_10
REMARK    3  A    between atoms: C3_3  and  C4_4
REMARK    4  A    between atoms: C4_4  and  S1_5
REMARK    5  A    between atoms: S1_5  and  S2_6
REMARK    6  A    between atoms: S2_6  and  C5_7
REMARK    7  A    between atoms: C5_7  and  C6_8
REMARK                            x       y       z     vdW  Elec       q    Type
REMARK                         _______ _______ _______ _____ _____    ______ ____
ROOT
ATOM      1  C4  UNL     1     -11.533  83.545  96.037  0.00  0.00    +0.000 C 
ENDROOT
BRANCH   1   4
ATOM      2  C1  UNL     1     -13.696  80.821  94.347  0.00  0.00    +0.000 C 
ATOM      3  C2  UNL     1     -12.549  81.506  95.029  0.00  0.00    +0.000 C 
ATOM      4  C3  UNL     1     -12.639  82.804  95.344  0.00  0.00    +0.000 C 
BRANCH   3   5
ATOM      5  O1  UNL     1     -11.398  80.785  95.347  0.00  0.00    +0.000 OA
ATOM      6  H12 UNL     1     -10.623  80.708  94.699  0.00  0.00    +0.000 HD
ENDBRANCH   3   5
ENDBRANCH   1   4
BRANCH   1   7
ATOM      7  S1  UNL     1     -12.197  84.661  97.320  0.00  0.00    +0.000 S 
BRANCH   7   8
ATOM      8  S2  UNL     1     -11.423  83.517  98.953  0.00  0.00    +0.000 S 
BRANCH   8   9
ATOM      9  C5  UNL     1     -10.089  82.757  97.972  0.00  0.00    +0.000 C 
BRANCH   9  10
ATOM     10  C6  UNL     1      -9.310  81.794  98.822  0.00  0.00    +0.000 C 
ATOM     11  C7  UNL     1      -9.249  81.914 100.151  0.00  0.00    +0.000 C 
ENDBRANCH   9  10
ENDBRANCH   8   9
ENDBRANCH   7   8
ENDBRANCH   1   7
TORSDOF 6
ENDMDL
MODEL 2
REMARK VINA RESULT:      -4.1      2.752      3.912
REMARK  Name = .\Allicin.pdb
REMARK  7 active torsions:
REMARK  status: ('A' for Active; 'I' for Inactive)
REMARK    1  A    between atoms: C1_1  and  C2_2
REMARK    2  A    between atoms: C2_2  and  O1_10
REMARK    3  A    between atoms: C3_3  and  C4_4
REMARK    4  A    between atoms: C4_4  and  S1_5
REMARK    5  A    between atoms: S1_5  and  S2_6
REMARK    6  A    between atoms: S2_6  and  C5_7
REMARK    7  A    between atoms: C5_7  and  C6_8
REMARK                            x       y       z     vdW  Elec       q    Type
REMARK                         _______ _______ _______ _____ _____    ______ ____
ROOT
ATOM      1  C4  UNL     1      -9.572  81.973  98.578  0.00  0.00    +0.000 C 
ENDROOT
BRANCH   1   4
ATOM      2  C1  UNL     1     -11.259  84.651  96.356  0.00  0.00    +0.000 C 
ATOM      3  C2  UNL     1     -10.588  83.383  96.793  0.00  0.00    +0.000 C 
ATOM      4  C3  UNL     1     -10.235  83.222  98.075  0.00  0.00    +0.000 C 
BRANCH   3   5
ATOM      5  O1  UNL     1     -10.347  82.368  95.866  0.00  0.00    +0.000 OA
ATOM      6  H12 UNL     1      -9.420  81.981  95.733  0.00  0.00    +0.000 HD
ENDBRANCH   3   5
ENDBRANCH   1   4
BRANCH   1   7
ATOM      7  S1  UNL     1      -9.228  82.092 100.367  0.00  0.00    +0.000 S 
BRANCH   7   8
ATOM      8  S2  UNL     1     -11.276  81.873 100.945  0.00  0.00    +0.000 S 
BRANCH   8   9
ATOM      9  C5  UNL     1     -11.105  82.882 102.453  0.00  0.00    +0.000 C 
BRANCH   9  10
ATOM     10  C6  UNL     1     -10.824  84.311 102.087  0.00  0.00    +0.000 C 
ATOM     11  C7  UNL     1     -11.592  84.985 101.225  0.00  0.00    +0.000 C 
ENDBRANCH   9  10
ENDBRANCH   8   9
ENDBRANCH   7   8
ENDBRANCH   1   7
TORSDOF 6
ENDMDL
MODEL 3
REMARK VINA RESULT:      -4.1      3.222      5.827
REMARK  Name = .\Allicin.pdb
REMARK  7 active torsions:
REMARK  status: ('A' for Active; 'I' for Inactive)
REMARK    1  A    between atoms: C1_1  and  C2_2
REMARK    2  A    between atoms: C2_2  and  O1_10
REMARK    3  A    between atoms: C3_3  and  C4_4
REMARK    4  A    between atoms: C4_4  and  S1_5
REMARK    5  A    between atoms: S1_5  and  S2_6
REMARK    6  A    between atoms: S2_6  and  C5_7
REMARK    7  A    between atoms: C5_7  and  C6_8
REMARK                            x       y       z     vdW  Elec       q    Type
REMARK                         _______ _______ _______ _____ _____    ______ ____
ROOT
ATOM      1  C4  UNL     1      -9.939  81.727 100.695  0.00  0.00    +0.000 C 
ENDROOT
BRANCH   1   4
ATOM      2  C1  UNL     1     -11.021  84.868 102.673  0.00  0.00    +0.000 C 
ATOM      3  C2  UNL     1     -10.165  83.822 102.024  0.00  0.00    +0.000 C 
ATOM      4  C3  UNL     1     -10.738  82.800 101.375  0.00  0.00    +0.000 C 
BRANCH   3   5
ATOM      5  O1  UNL     1      -8.775  83.924 102.084  0.00  0.00    +0.000 OA
ATOM      6  H12 UNL     1      -8.183  83.544 101.355  0.00  0.00    +0.000 HD
ENDBRANCH   3   5
ENDBRANCH   1   4
BRANCH   1   7
ATOM      7  S1  UNL     1      -9.762  82.075  98.911  0.00  0.00    +0.000 S 
BRANCH   7   8
ATOM      8  S2  UNL     1     -11.795  82.693  98.661  0.00  0.00    +0.000 S 
BRANCH   8   9
ATOM      9  C5  UNL     1     -11.776  82.506  96.848  0.00  0.00    +0.000 C 
BRANCH   9  10
ATOM     10  C6  UNL     1     -10.766  83.438  96.244  0.00  0.00    +0.000 C 
ATOM     11  C7  UNL     1     -10.887  84.766  96.335  0.00  0.00    +0.000 C 
ENDBRANCH   9  10
ENDBRANCH   8   9
ENDBRANCH   7   8
ENDBRANCH   1   7
TORSDOF 6
ENDMDL
MODEL 4
REMARK VINA RESULT:      -3.9      2.995      4.957
REMARK  Name = .\Allicin.pdb
REMARK  7 active torsions:
REMARK  status: ('A' for Active; 'I' for Inactive)
REMARK    1  A    between atoms: C1_1  and  C2_2
REMARK    2  A    between atoms: C2_2  and  O1_10
REMARK    3  A    between atoms: C3_3  and  C4_4
REMARK    4  A    between atoms: C4_4  and  S1_5
REMARK    5  A    between atoms: S1_5  and  S2_6
REMARK    6  A    between atoms: S2_6  and  C5_7
REMARK    7  A    between atoms: C5_7  and  C6_8
REMARK                            x       y       z     vdW  Elec       q    Type
REMARK                         _______ _______ _______ _____ _____    ______ ____
ROOT
ATOM      1  C4  UNL     1     -11.341  82.493 101.684  0.00  0.00    +0.000 C 
ENDROOT
BRANCH   1   4
ATOM      2  C1  UNL     1      -8.579  81.309  99.249  0.00  0.00    +0.000 C 
ATOM      3  C2  UNL     1      -9.300  82.078 100.316  0.00  0.00    +0.000 C 
ATOM      4  C3  UNL     1     -10.568  81.770 100.619  0.00  0.00    +0.000 C 
BRANCH   3   5
ATOM      5  O1  UNL     1      -8.644  83.101 101.001  0.00  0.00    +0.000 OA
ATOM      6  H12 UNL     1      -8.401  83.973 100.546  0.00  0.00    +0.000 HD
ENDBRANCH   3   5
ENDBRANCH   1   4
BRANCH   1   7
ATOM      7  S1  UNL     1     -12.329  83.850 100.967  0.00  0.00    +0.000 S 
BRANCH   7   8
ATOM      8  S2  UNL     1     -12.470  82.950  99.032  0.00  0.00    +0.000 S 
BRANCH   8   9
ATOM      9  C5  UNL     1     -11.801  84.399  98.153  0.00  0.00    +0.000 C 
BRANCH   9  10
ATOM     10  C6  UNL     1     -10.613  83.997  97.328  0.00  0.00    +0.000 C 
ATOM     11  C7  UNL     1     -10.607  82.881  96.593  0.00  0.00    +0.000 C 
ENDBRANCH   9  10
ENDBRANCH   8   9
ENDBRANCH   7   8
ENDBRANCH   1   7
TORSDOF 6
ENDMDL
MODEL 5
REMARK VINA RESULT:      -3.8      2.395      3.888
REMARK  Name = .\Allicin.pdb
REMARK  7 active torsions:
REMARK  status: ('A' for Active; 'I' for Inactive)
REMARK    1  A    between atoms: C1_1  and  C2_2
REMARK    2  A    between atoms: C2_2  and  O1_10
REMARK    3  A    between atoms: C3_3  and  C4_4
REMARK    4  A    between atoms: C4_4  and  S1_5
REMARK    5  A    between atoms: S1_5  and  S2_6
REMARK    6  A    between atoms: S2_6  and  C5_7
REMARK    7  A    between atoms: C5_7  and  C6_8
REMARK                            x       y       z     vdW  Elec       q    Type
REMARK                         _______ _______ _______ _____ _____    ______ ____
ROOT
ATOM      1  C4  UNL     1      -9.538  81.987  98.636  0.00  0.00    +0.000 C 
ENDROOT
BRANCH   1   4
ATOM      2  C1  UNL     1     -11.218  84.624  96.360  0.00  0.00    +0.000 C 
ATOM      3  C2  UNL     1     -10.553  83.362  96.823  0.00  0.00    +0.000 C 
ATOM      4  C3  UNL     1     -10.196  83.228  98.107  0.00  0.00    +0.000 C 
BRANCH   3   5
ATOM      5  O1  UNL     1     -10.323  82.325  95.919  0.00  0.00    +0.000 OA
ATOM      6  H12 UNL     1     -10.590  81.370  96.128  0.00  0.00    +0.000 HD
ENDBRANCH   3   5
ENDBRANCH   1   4
BRANCH   1   7
ATOM      7  S1  UNL     1      -9.741  81.862 100.446  0.00  0.00    +0.000 S 
BRANCH   7   8
ATOM      8  S2  UNL     1     -11.453  83.142 100.511  0.00  0.00    +0.000 S 
BRANCH   8   9
ATOM      9  C5  UNL     1     -12.653  81.778 100.370  0.00  0.00    +0.000 C 
BRANCH   9  10
ATOM     10  C6  UNL     1     -13.826  82.208  99.537  0.00  0.00    +0.000 C 
ATOM     11  C7  UNL     1     -13.789  82.188  98.201  0.00  0.00    +0.000 C 
ENDBRANCH   9  10
ENDBRANCH   8   9
ENDBRANCH   7   8
ENDBRANCH   1   7
TORSDOF 6
ENDMDL
MODEL 6
REMARK VINA RESULT:      -3.6      1.498      4.311
REMARK  Name = .\Allicin.pdb
REMARK  7 active torsions:
REMARK  status: ('A' for Active; 'I' for Inactive)
REMARK    1  A    between atoms: C1_1  and  C2_2
REMARK    2  A    between atoms: C2_2  and  O1_10
REMARK    3  A    between atoms: C3_3  and  C4_4
REMARK    4  A    between atoms: C4_4  and  S1_5
REMARK    5  A    between atoms: S1_5  and  S2_6
REMARK    6  A    between atoms: S2_6  and  C5_7
REMARK    7  A    between atoms: C5_7  and  C6_8
REMARK                            x       y       z     vdW  Elec       q    Type
REMARK                         _______ _______ _______ _____ _____    ______ ____
ROOT
ATOM      1  C4  UNL     1     -11.502  84.390  97.606  0.00  0.00    +0.000 C 
ENDROOT
BRANCH   1   4
ATOM      2  C1  UNL     1      -9.152  81.605  98.901  0.00  0.00    +0.000 C 
ATOM      3  C2  UNL     1      -9.966  82.464  97.979  0.00  0.00    +0.000 C 
ATOM      4  C3  UNL     1     -10.677  83.485  98.474  0.00  0.00    +0.000 C 
BRANCH   3   5
ATOM      5  O1  UNL     1      -9.967  82.208  96.608  0.00  0.00    +0.000 OA
ATOM      6  H12 UNL     1     -10.249  81.308  96.237  0.00  0.00    +0.000 HD
ENDBRANCH   3   5
ENDBRANCH   1   4
BRANCH   1   7
ATOM      7  S1  UNL     1     -13.209  84.527  98.240  0.00  0.00    +0.000 S 
BRANCH   7   8
ATOM      8  S2  UNL     1     -13.792  82.581  97.572  0.00  0.00    +0.000 S 
BRANCH   8   9
ATOM      9  C5  UNL     1     -14.104  83.109  95.856  0.00  0.00    +0.000 C 
BRANCH   9  10
ATOM     10  C6  UNL     1     -13.127  82.447  94.927  0.00  0.00    +0.000 C 
ATOM     11  C7  UNL     1     -13.045  81.117  94.818  0.00  0.00    +0.000 C 
ENDBRANCH   9  10
ENDBRANCH   8   9
ENDBRANCH   7   8
ENDBRANCH   1   7
TORSDOF 6
ENDMDL
MODEL 7
REMARK VINA RESULT:      -3.6      2.591      3.588
REMARK  Name = .\Allicin.pdb
REMARK  7 active torsions:
REMARK  status: ('A' for Active; 'I' for Inactive)
REMARK    1  A    between atoms: C1_1  and  C2_2
REMARK    2  A    between atoms: C2_2  and  O1_10
REMARK    3  A    between atoms: C3_3  and  C4_4
REMARK    4  A    between atoms: C4_4  and  S1_5
REMARK    5  A    between atoms: S1_5  and  S2_6
REMARK    6  A    between atoms: S2_6  and  C5_7
REMARK    7  A    between atoms: C5_7  and  C6_8
REMARK                            x       y       z     vdW  Elec       q    Type
REMARK                         _______ _______ _______ _____ _____    ______ ____
ROOT
ATOM      1  C4  UNL     1     -11.461  84.462  97.432  0.00  0.00    +0.000 C 
ENDROOT
BRANCH   1   4
ATOM      2  C1  UNL     1      -9.200  81.691  98.906  0.00  0.00    +0.000 C 
ATOM      3  C2  UNL     1      -9.987  82.516  97.930  0.00  0.00    +0.000 C 
ATOM      4  C3  UNL     1     -10.664  83.588  98.358  0.00  0.00    +0.000 C 
BRANCH   3   5
ATOM      5  O1  UNL     1      -9.998  82.171  96.579  0.00  0.00    +0.000 OA
ATOM      6  H12 UNL     1     -10.309  81.259  96.266  0.00  0.00    +0.000 HD
ENDBRANCH   3   5
ENDBRANCH   1   4
BRANCH   1   7
ATOM      7  S1  UNL     1     -13.250  84.285  97.745  0.00  0.00    +0.000 S 
BRANCH   7   8
ATOM      8  S2  UNL     1     -13.037  84.169  99.871  0.00  0.00    +0.000 S 
BRANCH   8   9
ATOM      9  C5  UNL     1     -13.912  82.577 100.014  0.00  0.00    +0.000 C 
BRANCH   9  10
ATOM     10  C6  UNL     1     -12.932  81.475 100.294  0.00  0.00    +0.000 C 
ATOM     11  C7  UNL     1     -12.095  81.520 101.335  0.00  0.00    +0.000 C 
ENDBRANCH   9  10
ENDBRANCH   8   9
ENDBRANCH   7   8
ENDBRANCH   1   7
TORSDOF 6
ENDMDL
MODEL 8
REMARK VINA RESULT:      -3.6      2.924      3.551
REMARK  Name = .\Allicin.pdb
REMARK  7 active torsions:
REMARK  status: ('A' for Active; 'I' for Inactive)
REMARK    1  A    between atoms: C1_1  and  C2_2
REMARK    2  A    between atoms: C2_2  and  O1_10
REMARK    3  A    between atoms: C3_3  and  C4_4
REMARK    4  A    between atoms: C4_4  and  S1_5
REMARK    5  A    between atoms: S1_5  and  S2_6
REMARK    6  A    between atoms: S2_6  and  C5_7
REMARK    7  A    between atoms: C5_7  and  C6_8
REMARK                            x       y       z     vdW  Elec       q    Type
REMARK                         _______ _______ _______ _____ _____    ______ ____
ROOT
ATOM      1  C4  UNL     1     -13.272  83.500  99.819  0.00  0.00    +0.000 C 
ENDROOT
BRANCH   1   4
ATOM      2  C1  UNL     1     -10.634  84.188  97.076  0.00  0.00    +0.000 C 
ATOM      3  C2  UNL     1     -11.679  83.500  97.904  0.00  0.00    +0.000 C 
ATOM      4  C3  UNL     1     -12.215  84.128  98.958  0.00  0.00    +0.000 C 
BRANCH   3   5
ATOM      5  O1  UNL     1     -12.099  82.214  97.564  0.00  0.00    +0.000 OA
ATOM      6  H12 UNL     1     -11.754  81.396  98.053  0.00  0.00    +0.000 HD
ENDBRANCH   3   5
ENDBRANCH   1   4
BRANCH   1   7
ATOM      7  S1  UNL     1     -12.522  82.524 101.167  0.00  0.00    +0.000 S 
BRANCH   7   8
ATOM      8  S2  UNL     1     -11.031  83.988 101.622  0.00  0.00    +0.000 S 
BRANCH   8   9
ATOM      9  C5  UNL     1      -9.675  82.776 101.739  0.00  0.00    +0.000 C 
BRANCH   9  10
ATOM     10  C6  UNL     1      -9.760  81.797 100.603  0.00  0.00    +0.000 C 
ATOM     11  C7  UNL     1      -8.889  81.813  99.590  0.00  0.00    +0.000 C 
ENDBRANCH   9  10
ENDBRANCH   8   9
ENDBRANCH   7   8
ENDBRANCH   1   7
TORSDOF 6
ENDMDL
MODEL 9
REMARK VINA RESULT:      -3.5      1.835      5.251
REMARK  Name = .\Allicin.pdb
REMARK  7 active torsions:
REMARK  status: ('A' for Active; 'I' for Inactive)
REMARK    1  A    between atoms: C1_1  and  C2_2
REMARK    2  A    between atoms: C2_2  and  O1_10
REMARK    3  A    between atoms: C3_3  and  C4_4
REMARK    4  A    between atoms: C4_4  and  S1_5
REMARK    5  A    between atoms: S1_5  and  S2_6
REMARK    6  A    between atoms: S2_6  and  C5_7
REMARK    7  A    between atoms: C5_7  and  C6_8
REMARK                            x       y       z     vdW  Elec       q    Type
REMARK                         _______ _______ _______ _____ _____    ______ ____
ROOT
ATOM      1  C4  UNL     1     -10.352  82.572  96.945  0.00  0.00    +0.000 C 
ENDROOT
BRANCH   1   4
ATOM      2  C1  UNL     1      -9.084  82.301 100.588  0.00  0.00    +0.000 C 
ATOM      3  C2  UNL     1      -9.315  82.001  99.137  0.00  0.00    +0.000 C 
ATOM      4  C3  UNL     1     -10.091  82.810  98.404  0.00  0.00    +0.000 C 
BRANCH   3   5
ATOM      5  O1  UNL     1      -8.709  80.889  98.551  0.00  0.00    +0.000 OA
ATOM      6  H12 UNL     1      -8.943  80.592  97.611  0.00  0.00    +0.000 HD
ENDBRANCH   3   5
ENDBRANCH   1   4
BRANCH   1   7
ATOM      7  S1  UNL     1     -11.612  83.731  96.310  0.00  0.00    +0.000 S 
BRANCH   7   8
ATOM      8  S2  UNL     1     -13.241  82.372  96.583  0.00  0.00    +0.000 S 
BRANCH   8   9
ATOM      9  C5  UNL     1     -12.864  81.398  95.090  0.00  0.00    +0.000 C 
BRANCH   9  10
ATOM     10  C6  UNL     1     -13.919  81.627  94.046  0.00  0.00    +0.000 C 
ATOM     11  C7  UNL     1     -14.546  80.614  93.441  0.00  0.00    +0.000 C 
ENDBRANCH   9  10
ENDBRANCH   8   9
ENDBRANCH   7   8
ENDBRANCH   1   7
TORSDOF 6
ENDMDL
