MODEL 1
REMARK VINA RESULT:      -5.1      0.000      0.000
REMARK  Name = .\Allicin.pdb
REMARK  7 active torsions:
REMARK  status: ('A' for Active; 'I' for Inactive)
REMARK    1  A    between atoms: C1_1  and  C2_2
REMARK    2  A    between atoms: C2_2  and  O1_10
REMARK    3  A    between atoms: C3_3  and  C4_4
REMARK    4  A    between atoms: C4_4  and  S1_5
REMARK    5  A    between atoms: S1_5  and  S2_6
REMARK    6  A    between atoms: S2_6  and  C5_7
REMARK    7  A    between atoms: C5_7  and  C6_8
REMARK                            x       y       z     vdW  Elec       q    Type
REMARK                         _______ _______ _______ _____ _____    ______ ____
ROOT
ATOM      1  C4  UNL     1     -17.969  56.548 -28.991  0.00  0.00    +0.000 C 
ENDROOT
BRANCH   1   4
ATOM      2  C1  UNL     1     -18.412  60.389 -29.081  0.00  0.00    +0.000 C 
ATOM      3  C2  UNL     1     -17.953  59.002 -29.421  0.00  0.00    +0.000 C 
ATOM      4  C3  UNL     1     -18.381  57.961 -28.696  0.00  0.00    +0.000 C 
BRANCH   3   5
ATOM      5  O1  UNL     1     -17.093  58.799 -30.501  0.00  0.00    +0.000 OA
ATOM      6  H12 UNL     1     -17.446  58.649 -31.439  0.00  0.00    +0.000 HD
ENDBRANCH   3   5
ENDBRANCH   1   4
BRANCH   1   7
ATOM      7  S1  UNL     1     -19.139  55.754 -30.147  0.00  0.00    +0.000 S 
BRANCH   7   8
ATOM      8  S2  UNL     1     -18.813  53.782 -29.384  0.00  0.00    +0.000 S 
BRANCH   8   9
ATOM      9  C5  UNL     1     -17.461  54.284 -28.270  0.00  0.00    +0.000 C 
BRANCH   9  10
ATOM     10  C6  UNL     1     -17.247  53.237 -27.216  0.00  0.00    +0.000 C 
ATOM     11  C7  UNL     1     -17.289  51.931 -27.497  0.00  0.00    +0.000 C 
ENDBRANCH   9  10
ENDBRANCH   8   9
ENDBRANCH   7   8
ENDBRANCH   1   7
TORSDOF 6
ENDMDL
MODEL 2
REMARK VINA RESULT:      -4.6      2.197      6.020
REMARK  Name = .\Allicin.pdb
REMARK  7 active torsions:
REMARK  status: ('A' for Active; 'I' for Inactive)
REMARK    1  A    between atoms: C1_1  and  C2_2
REMARK    2  A    between atoms: C2_2  and  O1_10
REMARK    3  A    between atoms: C3_3  and  C4_4
REMARK    4  A    between atoms: C4_4  and  S1_5
REMARK    5  A    between atoms: S1_5  and  S2_6
REMARK    6  A    between atoms: S2_6  and  C5_7
REMARK    7  A    between atoms: C5_7  and  C6_8
REMARK                            x       y       z     vdW  Elec       q    Type
REMARK                         _______ _______ _______ _____ _____    ______ ____
ROOT
ATOM      1  C4  UNL     1     -18.729  56.104 -29.925  0.00  0.00    +0.000 C 
ENDROOT
BRANCH   1   4
ATOM      2  C1  UNL     1     -17.336  53.424 -27.509  0.00  0.00    +0.000 C 
ATOM      3  C2  UNL     1     -17.468  54.686 -28.311  0.00  0.00    +0.000 C 
ATOM      4  C3  UNL     1     -18.530  54.861 -29.107  0.00  0.00    +0.000 C 
BRANCH   3   5
ATOM      5  O1  UNL     1     -16.493  55.678 -28.213  0.00  0.00    +0.000 OA
ATOM      6  H12 UNL     1     -16.431  56.283 -27.402  0.00  0.00    +0.000 HD
ENDBRANCH   3   5
ENDBRANCH   1   4
BRANCH   1   7
ATOM      7  S1  UNL     1     -18.943  57.566 -28.852  0.00  0.00    +0.000 S 
BRANCH   7   8
ATOM      8  S2  UNL     1     -17.976  58.909 -30.208  0.00  0.00    +0.000 S 
BRANCH   8   9
ATOM      9  C5  UNL     1     -19.097  60.301 -29.849  0.00  0.00    +0.000 C 
BRANCH   9  10
ATOM     10  C6  UNL     1     -18.382  61.343 -29.038  0.00  0.00    +0.000 C 
ATOM     11  C7  UNL     1     -18.317  62.620 -29.427  0.00  0.00    +0.000 C 
ENDBRANCH   9  10
ENDBRANCH   8   9
ENDBRANCH   7   8
ENDBRANCH   1   7
TORSDOF 6
ENDMDL
MODEL 3
REMARK VINA RESULT:      -4.5      2.708      6.621
REMARK  Name = .\Allicin.pdb
REMARK  7 active torsions:
REMARK  status: ('A' for Active; 'I' for Inactive)
REMARK    1  A    between atoms: C1_1  and  C2_2
REMARK    2  A    between atoms: C2_2  and  O1_10
REMARK    3  A    between atoms: C3_3  and  C4_4
REMARK    4  A    between atoms: C4_4  and  S1_5
REMARK    5  A    between atoms: S1_5  and  S2_6
REMARK    6  A    between atoms: S2_6  and  C5_7
REMARK    7  A    between atoms: C5_7  and  C6_8
REMARK                            x       y       z     vdW  Elec       q    Type
REMARK                         _______ _______ _______ _____ _____    ______ ____
ROOT
ATOM      1  C4  UNL     1     -18.101  57.447 -30.034  0.00  0.00    +0.000 C 
ENDROOT
BRANCH   1   4
ATOM      2  C1  UNL     1     -18.294  54.112 -28.084  0.00  0.00    +0.000 C 
ATOM      3  C2  UNL     1     -17.789  55.419 -28.620  0.00  0.00    +0.000 C 
ATOM      4  C3  UNL     1     -18.543  56.127 -29.471  0.00  0.00    +0.000 C 
BRANCH   3   5
ATOM      5  O1  UNL     1     -16.543  55.901 -28.219  0.00  0.00    +0.000 OA
ATOM      6  H12 UNL     1     -16.383  56.888 -28.054  0.00  0.00    +0.000 HD
ENDBRANCH   3   5
ENDBRANCH   1   4
BRANCH   1   7
ATOM      7  S1  UNL     1     -18.231  58.768 -28.781  0.00  0.00    +0.000 S 
BRANCH   7   8
ATOM      8  S2  UNL     1     -18.850  60.264 -30.179  0.00  0.00    +0.000 S 
BRANCH   8   9
ATOM      9  C5  UNL     1     -18.161  61.650 -29.217  0.00  0.00    +0.000 C 
BRANCH   9  10
ATOM     10  C6  UNL     1     -18.911  62.913 -29.524  0.00  0.00    +0.000 C 
ATOM     11  C7  UNL     1     -18.307  63.986 -30.044  0.00  0.00    +0.000 C 
ENDBRANCH   9  10
ENDBRANCH   8   9
ENDBRANCH   7   8
ENDBRANCH   1   7
TORSDOF 6
ENDMDL
MODEL 4
REMARK VINA RESULT:      -4.4      3.170      6.567
REMARK  Name = .\Allicin.pdb
REMARK  7 active torsions:
REMARK  status: ('A' for Active; 'I' for Inactive)
REMARK    1  A    between atoms: C1_1  and  C2_2
REMARK    2  A    between atoms: C2_2  and  O1_10
REMARK    3  A    between atoms: C3_3  and  C4_4
REMARK    4  A    between atoms: C4_4  and  S1_5
REMARK    5  A    between atoms: S1_5  and  S2_6
REMARK    6  A    between atoms: S2_6  and  C5_7
REMARK    7  A    between atoms: C5_7  and  C6_8
REMARK                            x       y       z     vdW  Elec       q    Type
REMARK                         _______ _______ _______ _____ _____    ______ ____
ROOT
ATOM      1  C4  UNL     1     -18.069  53.119 -27.607  0.00  0.00    +0.000 C 
ENDROOT
BRANCH   1   4
ATOM      2  C1  UNL     1     -16.408  49.825 -26.446  0.00  0.00    +0.000 C 
ATOM      3  C2  UNL     1     -17.441  50.815 -26.897  0.00  0.00    +0.000 C 
ATOM      4  C3  UNL     1     -17.087  52.083 -27.142  0.00  0.00    +0.000 C 
BRANCH   3   5
ATOM      5  O1  UNL     1     -18.763  50.408 -27.076  0.00  0.00    +0.000 OA
ATOM      6  H12 UNL     1     -18.992  49.482 -27.416  0.00  0.00    +0.000 HD
ENDBRANCH   3   5
ENDBRANCH   1   4
BRANCH   1   7
ATOM      7  S1  UNL     1     -17.208  54.560 -28.325  0.00  0.00    +0.000 S 
BRANCH   7   8
ATOM      8  S2  UNL     1     -18.847  55.126 -29.577  0.00  0.00    +0.000 S 
BRANCH   8   9
ATOM      9  C5  UNL     1     -18.185  56.786 -29.934  0.00  0.00    +0.000 C 
BRANCH   9  10
ATOM     10  C6  UNL     1     -18.600  57.748 -28.858  0.00  0.00    +0.000 C 
ATOM     11  C7  UNL     1     -18.209  59.026 -28.863  0.00  0.00    +0.000 C 
ENDBRANCH   9  10
ENDBRANCH   8   9
ENDBRANCH   7   8
ENDBRANCH   1   7
TORSDOF 6
ENDMDL
MODEL 5
REMARK VINA RESULT:      -4.1      3.199      3.763
REMARK  Name = .\Allicin.pdb
REMARK  7 active torsions:
REMARK  status: ('A' for Active; 'I' for Inactive)
REMARK    1  A    between atoms: C1_1  and  C2_2
REMARK    2  A    between atoms: C2_2  and  O1_10
REMARK    3  A    between atoms: C3_3  and  C4_4
REMARK    4  A    between atoms: C4_4  and  S1_5
REMARK    5  A    between atoms: S1_5  and  S2_6
REMARK    6  A    between atoms: S2_6  and  C5_7
REMARK    7  A    between atoms: C5_7  and  C6_8
REMARK                            x       y       z     vdW  Elec       q    Type
REMARK                         _______ _______ _______ _____ _____    ______ ____
ROOT
ATOM      1  C4  UNL     1     -19.492  55.327 -30.596  0.00  0.00    +0.000 C 
ENDROOT
BRANCH   1   4
ATOM      2  C1  UNL     1     -21.382  55.464 -33.968  0.00  0.00    +0.000 C 
ATOM      3  C2  UNL     1     -20.409  55.776 -32.869  0.00  0.00    +0.000 C 
ATOM      4  C3  UNL     1     -20.444  55.074 -31.729  0.00  0.00    +0.000 C 
BRANCH   3   5
ATOM      5  O1  UNL     1     -19.462  56.784 -33.044  0.00  0.00    +0.000 OA
ATOM      6  H12 UNL     1     -18.539  56.586 -33.413  0.00  0.00    +0.000 HD
ENDBRANCH   3   5
ENDBRANCH   1   4
BRANCH   1   7
ATOM      7  S1  UNL     1     -19.110  53.780 -29.706  0.00  0.00    +0.000 S 
BRANCH   7   8
ATOM      8  S2  UNL     1     -17.613  54.669 -28.463  0.00  0.00    +0.000 S 
BRANCH   8   9
ATOM      9  C5  UNL     1     -17.732  53.395 -27.166  0.00  0.00    +0.000 C 
BRANCH   9  10
ATOM     10  C6  UNL     1     -17.138  52.105 -27.655  0.00  0.00    +0.000 C 
ATOM     11  C7  UNL     1     -17.145  50.996 -26.910  0.00  0.00    +0.000 C 
ENDBRANCH   9  10
ENDBRANCH   8   9
ENDBRANCH   7   8
ENDBRANCH   1   7
TORSDOF 6
ENDMDL
MODEL 6
REMARK VINA RESULT:      -4.1      2.132      2.922
REMARK  Name = .\Allicin.pdb
REMARK  7 active torsions:
REMARK  status: ('A' for Active; 'I' for Inactive)
REMARK    1  A    between atoms: C1_1  and  C2_2
REMARK    2  A    between atoms: C2_2  and  O1_10
REMARK    3  A    between atoms: C3_3  and  C4_4
REMARK    4  A    between atoms: C4_4  and  S1_5
REMARK    5  A    between atoms: S1_5  and  S2_6
REMARK    6  A    between atoms: S2_6  and  C5_7
REMARK    7  A    between atoms: C5_7  and  C6_8
REMARK                            x       y       z     vdW  Elec       q    Type
REMARK                         _______ _______ _______ _____ _____    ______ ____
ROOT
ATOM      1  C4  UNL     1     -18.372  54.555 -29.070  0.00  0.00    +0.000 C 
ENDROOT
BRANCH   1   4
ATOM      2  C1  UNL     1     -18.259  58.383 -29.612  0.00  0.00    +0.000 C 
ATOM      3  C2  UNL     1     -18.611  56.933 -29.772  0.00  0.00    +0.000 C 
ATOM      4  C3  UNL     1     -18.053  56.019 -28.969  0.00  0.00    +0.000 C 
BRANCH   3   5
ATOM      5  O1  UNL     1     -19.531  56.544 -30.746  0.00  0.00    +0.000 OA
ATOM      6  H12 UNL     1     -19.439  55.665 -31.241  0.00  0.00    +0.000 HD
ENDBRANCH   3   5
ENDBRANCH   1   4
BRANCH   1   7
ATOM      7  S1  UNL     1     -18.121  53.720 -27.466  0.00  0.00    +0.000 S 
BRANCH   7   8
ATOM      8  S2  UNL     1     -17.008  52.093 -28.297  0.00  0.00    +0.000 S 
BRANCH   8   9
ATOM      9  C5  UNL     1     -17.212  51.023 -26.837  0.00  0.00    +0.000 C 
BRANCH   9  10
ATOM     10  C6  UNL     1     -16.160  49.951 -26.833  0.00  0.00    +0.000 C 
ATOM     11  C7  UNL     1     -16.269  48.856 -26.075  0.00  0.00    +0.000 C 
ENDBRANCH   9  10
ENDBRANCH   8   9
ENDBRANCH   7   8
ENDBRANCH   1   7
TORSDOF 6
ENDMDL
MODEL 7
REMARK VINA RESULT:      -3.9      3.274      6.039
REMARK  Name = .\Allicin.pdb
REMARK  7 active torsions:
REMARK  status: ('A' for Active; 'I' for Inactive)
REMARK    1  A    between atoms: C1_1  and  C2_2
REMARK    2  A    between atoms: C2_2  and  O1_10
REMARK    3  A    between atoms: C3_3  and  C4_4
REMARK    4  A    between atoms: C4_4  and  S1_5
REMARK    5  A    between atoms: S1_5  and  S2_6
REMARK    6  A    between atoms: S2_6  and  C5_7
REMARK    7  A    between atoms: C5_7  and  C6_8
REMARK                            x       y       z     vdW  Elec       q    Type
REMARK                         _______ _______ _______ _____ _____    ______ ____
ROOT
ATOM      1  C4  UNL     1     -18.825  55.608 -29.829  0.00  0.00    +0.000 C 
ENDROOT
BRANCH   1   4
ATOM      2  C1  UNL     1     -21.203  55.114 -32.840  0.00  0.00    +0.000 C 
ATOM      3  C2  UNL     1     -20.301  54.823 -31.677  0.00  0.00    +0.000 C 
ATOM      4  C3  UNL     1     -19.728  55.832 -31.008  0.00  0.00    +0.000 C 
BRANCH   3   5
ATOM      5  O1  UNL     1     -20.073  53.503 -31.287  0.00  0.00    +0.000 OA
ATOM      6  H12 UNL     1     -19.850  53.265 -30.327  0.00  0.00    +0.000 HD
ENDBRANCH   3   5
ENDBRANCH   1   4
BRANCH   1   7
ATOM      7  S1  UNL     1     -18.647  57.135 -28.844  0.00  0.00    +0.000 S 
BRANCH   7   8
ATOM      8  S2  UNL     1     -18.254  58.381 -30.538  0.00  0.00    +0.000 S 
BRANCH   8   9
ATOM      9  C5  UNL     1     -19.147  59.819 -29.865  0.00  0.00    +0.000 C 
BRANCH   9  10
ATOM     10  C6  UNL     1     -18.170  60.838 -29.352  0.00  0.00    +0.000 C 
ATOM     11  C7  UNL     1     -18.413  62.150 -29.428  0.00  0.00    +0.000 C 
ENDBRANCH   9  10
ENDBRANCH   8   9
ENDBRANCH   7   8
ENDBRANCH   1   7
TORSDOF 6
ENDMDL
MODEL 8
REMARK VINA RESULT:      -3.9      2.406      3.282
REMARK  Name = .\Allicin.pdb
REMARK  7 active torsions:
REMARK  status: ('A' for Active; 'I' for Inactive)
REMARK    1  A    between atoms: C1_1  and  C2_2
REMARK    2  A    between atoms: C2_2  and  O1_10
REMARK    3  A    between atoms: C3_3  and  C4_4
REMARK    4  A    between atoms: C4_4  and  S1_5
REMARK    5  A    between atoms: S1_5  and  S2_6
REMARK    6  A    between atoms: S2_6  and  C5_7
REMARK    7  A    between atoms: C5_7  and  C6_8
REMARK                            x       y       z     vdW  Elec       q    Type
REMARK                         _______ _______ _______ _____ _____    ______ ____
ROOT
ATOM      1  C4  UNL     1     -18.937  60.268 -30.333  0.00  0.00    +0.000 C 
ENDROOT
BRANCH   1   4
ATOM      2  C1  UNL     1     -18.443  62.639 -27.317  0.00  0.00    +0.000 C 
ATOM      3  C2  UNL     1     -18.425  62.092 -28.714  0.00  0.00    +0.000 C 
ATOM      4  C3  UNL     1     -18.915  60.870 -28.957  0.00  0.00    +0.000 C 
BRANCH   3   5
ATOM      5  O1  UNL     1     -17.912  62.863 -29.757  0.00  0.00    +0.000 OA
ATOM      6  H12 UNL     1     -17.830  63.870 -29.682  0.00  0.00    +0.000 HD
ENDBRANCH   3   5
ENDBRANCH   1   4
BRANCH   1   7
ATOM      7  S1  UNL     1     -17.875  58.785 -30.415  0.00  0.00    +0.000 S 
BRANCH   7   8
ATOM      8  S2  UNL     1     -18.917  57.749 -28.861  0.00  0.00    +0.000 S 
BRANCH   8   9
ATOM      9  C5  UNL     1     -18.605  56.096 -29.561  0.00  0.00    +0.000 C 
BRANCH   9  10
ATOM     10  C6  UNL     1     -17.685  55.321 -28.662  0.00  0.00    +0.000 C 
ATOM     11  C7  UNL     1     -18.114  54.287 -27.932  0.00  0.00    +0.000 C 
ENDBRANCH   9  10
ENDBRANCH   8   9
ENDBRANCH   7   8
ENDBRANCH   1   7
TORSDOF 6
ENDMDL
MODEL 9
REMARK VINA RESULT:      -3.9      1.943      2.192
REMARK  Name = .\Allicin.pdb
REMARK  7 active torsions:
REMARK  status: ('A' for Active; 'I' for Inactive)
REMARK    1  A    between atoms: C1_1  and  C2_2
REMARK    2  A    between atoms: C2_2  and  O1_10
REMARK    3  A    between atoms: C3_3  and  C4_4
REMARK    4  A    between atoms: C4_4  and  S1_5
REMARK    5  A    between atoms: S1_5  and  S2_6
REMARK    6  A    between atoms: S2_6  and  C5_7
REMARK    7  A    between atoms: C5_7  and  C6_8
REMARK                            x       y       z     vdW  Elec       q    Type
REMARK                         _______ _______ _______ _____ _____    ______ ____
ROOT
ATOM      1  C4  UNL     1     -18.221  56.587 -29.391  0.00  0.00    +0.000 C 
ENDROOT
BRANCH   1   4
ATOM      2  C1  UNL     1     -18.376  60.421 -28.906  0.00  0.00    +0.000 C 
ATOM      3  C2  UNL     1     -17.992  59.068 -29.428  0.00  0.00    +0.000 C 
ATOM      4  C3  UNL     1     -18.552  57.969 -28.907  0.00  0.00    +0.000 C 
BRANCH   3   5
ATOM      5  O1  UNL     1     -17.065  58.959 -30.464  0.00  0.00    +0.000 OA
ATOM      6  H12 UNL     1     -17.082  58.180 -31.111  0.00  0.00    +0.000 HD
ENDBRANCH   3   5
ENDBRANCH   1   4
BRANCH   1   7
ATOM      7  S1  UNL     1     -16.986  55.793 -28.307  0.00  0.00    +0.000 S 
BRANCH   7   8
ATOM      8  S2  UNL     1     -18.271  54.177 -27.748  0.00  0.00    +0.000 S 
BRANCH   8   9
ATOM      9  C5  UNL     1     -18.167  53.348 -29.367  0.00  0.00    +0.000 C 
BRANCH   9  10
ATOM     10  C6  UNL     1     -19.540  52.959 -29.835  0.00  0.00    +0.000 C 
ATOM     11  C7  UNL     1     -19.991  53.283 -31.050  0.00  0.00    +0.000 C 
ENDBRANCH   9  10
ENDBRANCH   8   9
ENDBRANCH   7   8
ENDBRANCH   1   7
TORSDOF 6
ENDMDL
