MODEL 1
REMARK VINA RESULT:      -3.6      0.000      0.000
REMARK  Name = .\Allicin.pdb
REMARK  7 active torsions:
REMARK  status: ('A' for Active; 'I' for Inactive)
REMARK    1  A    between atoms: C1_1  and  C2_2
REMARK    2  A    between atoms: C2_2  and  O1_10
REMARK    3  A    between atoms: C3_3  and  C4_4
REMARK    4  A    between atoms: C4_4  and  S1_5
REMARK    5  A    between atoms: S1_5  and  S2_6
REMARK    6  A    between atoms: S2_6  and  C5_7
REMARK    7  A    between atoms: C5_7  and  C6_8
REMARK                            x       y       z     vdW  Elec       q    Type
REMARK                         _______ _______ _______ _____ _____    ______ ____
ROOT
ATOM      1  C4  UNL     1       2.175  60.549  80.492  0.00  0.00    +0.000 C 
ENDROOT
BRANCH   1   4
ATOM      2  C1  UNL     1       0.910  58.531  77.445  0.00  0.00    +0.000 C 
ATOM      3  C2  UNL     1       0.974  59.533  78.560  0.00  0.00    +0.000 C 
ATOM      4  C3  UNL     1       2.043  59.565  79.366  0.00  0.00    +0.000 C 
BRANCH   3   5
ATOM      5  O1  UNL     1      -0.071  60.438  78.745  0.00  0.00    +0.000 OA
ATOM      6  H12 UNL     1      -0.025  61.383  78.383  0.00  0.00    +0.000 HD
ENDBRANCH   3   5
ENDBRANCH   1   4
BRANCH   1   7
ATOM      7  S1  UNL     1       3.569  60.109  81.585  0.00  0.00    +0.000 S 
BRANCH   7   8
ATOM      8  S2  UNL     1       3.939  62.123  82.204  0.00  0.00    +0.000 S 
BRANCH   8   9
ATOM      9  C5  UNL     1       3.418  62.854  80.619  0.00  0.00    +0.000 C 
BRANCH   9  10
ATOM     10  C6  UNL     1       3.097  64.310  80.804  0.00  0.00    +0.000 C 
ATOM     11  C7  UNL     1       4.049  65.248  80.818  0.00  0.00    +0.000 C 
ENDBRANCH   9  10
ENDBRANCH   8   9
ENDBRANCH   7   8
ENDBRANCH   1   7
TORSDOF 6
ENDMDL
MODEL 2
REMARK VINA RESULT:      -3.4      2.163      5.443
REMARK  Name = .\Allicin.pdb
REMARK  7 active torsions:
REMARK  status: ('A' for Active; 'I' for Inactive)
REMARK    1  A    between atoms: C1_1  and  C2_2
REMARK    2  A    between atoms: C2_2  and  O1_10
REMARK    3  A    between atoms: C3_3  and  C4_4
REMARK    4  A    between atoms: C4_4  and  S1_5
REMARK    5  A    between atoms: S1_5  and  S2_6
REMARK    6  A    between atoms: S2_6  and  C5_7
REMARK    7  A    between atoms: C5_7  and  C6_8
REMARK                            x       y       z     vdW  Elec       q    Type
REMARK                         _______ _______ _______ _____ _____    ______ ____
ROOT
ATOM      1  C4  UNL     1       3.113  62.201  80.521  0.00  0.00    +0.000 C 
ENDROOT
BRANCH   1   4
ATOM      2  C1  UNL     1       5.149  65.404  81.262  0.00  0.00    +0.000 C 
ATOM      3  C2  UNL     1       4.085  64.349  81.326  0.00  0.00    +0.000 C 
ATOM      4  C3  UNL     1       4.139  63.296  80.500  0.00  0.00    +0.000 C 
BRANCH   3   5
ATOM      5  O1  UNL     1       3.050  64.459  82.255  0.00  0.00    +0.000 OA
ATOM      6  H12 UNL     1       3.235  64.630  83.237  0.00  0.00    +0.000 HD
ENDBRANCH   3   5
ENDBRANCH   1   4
BRANCH   1   7
ATOM      7  S1  UNL     1       3.660  60.813  81.572  0.00  0.00    +0.000 S 
BRANCH   7   8
ATOM      8  S2  UNL     1       2.739  59.311  80.358  0.00  0.00    +0.000 S 
BRANCH   8   9
ATOM      9  C5  UNL     1       1.566  60.464  79.575  0.00  0.00    +0.000 C 
BRANCH   9  10
ATOM     10  C6  UNL     1       0.729  59.738  78.561  0.00  0.00    +0.000 C 
ATOM     11  C7  UNL     1       1.212  58.719  77.845  0.00  0.00    +0.000 C 
ENDBRANCH   9  10
ENDBRANCH   8   9
ENDBRANCH   7   8
ENDBRANCH   1   7
TORSDOF 6
ENDMDL
MODEL 3
REMARK VINA RESULT:      -3.2      2.156      2.951
REMARK  Name = .\Allicin.pdb
REMARK  7 active torsions:
REMARK  status: ('A' for Active; 'I' for Inactive)
REMARK    1  A    between atoms: C1_1  and  C2_2
REMARK    2  A    between atoms: C2_2  and  O1_10
REMARK    3  A    between atoms: C3_3  and  C4_4
REMARK    4  A    between atoms: C4_4  and  S1_5
REMARK    5  A    between atoms: S1_5  and  S2_6
REMARK    6  A    between atoms: S2_6  and  C5_7
REMARK    7  A    between atoms: C5_7  and  C6_8
REMARK                            x       y       z     vdW  Elec       q    Type
REMARK                         _______ _______ _______ _____ _____    ______ ____
ROOT
ATOM      1  C4  UNL     1       2.114  60.631  80.639  0.00  0.00    +0.000 C 
ENDROOT
BRANCH   1   4
ATOM      2  C1  UNL     1       1.016  58.673  77.490  0.00  0.00    +0.000 C 
ATOM      3  C2  UNL     1       1.007  59.633  78.642  0.00  0.00    +0.000 C 
ATOM      4  C3  UNL     1       2.055  59.685  79.474  0.00  0.00    +0.000 C 
BRANCH   3   5
ATOM      5  O1  UNL     1      -0.085  60.479  78.835  0.00  0.00    +0.000 OA
ATOM      6  H12 UNL     1      -0.517  60.972  78.062  0.00  0.00    +0.000 HD
ENDBRANCH   3   5
ENDBRANCH   1   4
BRANCH   1   7
ATOM      7  S1  UNL     1       2.912  62.203  80.164  0.00  0.00    +0.000 S 
BRANCH   7   8
ATOM      8  S2  UNL     1       4.666  61.861  81.340  0.00  0.00    +0.000 S 
BRANCH   8   9
ATOM      9  C5  UNL     1       3.748  61.216  82.777  0.00  0.00    +0.000 C 
BRANCH   9  10
ATOM     10  C6  UNL     1       4.504  60.079  83.402  0.00  0.00    +0.000 C 
ATOM     11  C7  UNL     1       4.609  58.887  82.806  0.00  0.00    +0.000 C 
ENDBRANCH   9  10
ENDBRANCH   8   9
ENDBRANCH   7   8
ENDBRANCH   1   7
TORSDOF 6
ENDMDL
MODEL 4
REMARK VINA RESULT:      -3.1      1.864      5.187
REMARK  Name = .\Allicin.pdb
REMARK  7 active torsions:
REMARK  status: ('A' for Active; 'I' for Inactive)
REMARK    1  A    between atoms: C1_1  and  C2_2
REMARK    2  A    between atoms: C2_2  and  O1_10
REMARK    3  A    between atoms: C3_3  and  C4_4
REMARK    4  A    between atoms: C4_4  and  S1_5
REMARK    5  A    between atoms: S1_5  and  S2_6
REMARK    6  A    between atoms: S2_6  and  C5_7
REMARK    7  A    between atoms: C5_7  and  C6_8
REMARK                            x       y       z     vdW  Elec       q    Type
REMARK                         _______ _______ _______ _____ _____    ______ ____
ROOT
ATOM      1  C4  UNL     1       3.126  60.239  80.979  0.00  0.00    +0.000 C 
ENDROOT
BRANCH   1   4
ATOM      2  C1  UNL     1       4.013  63.977  81.427  0.00  0.00    +0.000 C 
ATOM      3  C2  UNL     1       3.433  62.709  80.872  0.00  0.00    +0.000 C 
ATOM      4  C3  UNL     1       3.685  61.541  81.476  0.00  0.00    +0.000 C 
BRANCH   3   5
ATOM      5  O1  UNL     1       2.621  62.753  79.739  0.00  0.00    +0.000 OA
ATOM      6  H12 UNL     1       2.951  63.145  78.865  0.00  0.00    +0.000 HD
ENDBRANCH   3   5
ENDBRANCH   1   4
BRANCH   1   7
ATOM      7  S1  UNL     1       3.867  58.827  81.867  0.00  0.00    +0.000 S 
BRANCH   7   8
ATOM      8  S2  UNL     1       3.052  57.354  80.548  0.00  0.00    +0.000 S 
BRANCH   8   9
ATOM      9  C5  UNL     1       2.230  58.571  79.469  0.00  0.00    +0.000 C 
BRANCH   9  10
ATOM     10  C6  UNL     1       1.416  57.865  78.423  0.00  0.00    +0.000 C 
ATOM     11  C7  UNL     1       0.995  58.485  77.317  0.00  0.00    +0.000 C 
ENDBRANCH   9  10
ENDBRANCH   8   9
ENDBRANCH   7   8
ENDBRANCH   1   7
TORSDOF 6
ENDMDL
MODEL 5
REMARK VINA RESULT:      -3.1      1.803      1.948
REMARK  Name = .\Allicin.pdb
REMARK  7 active torsions:
REMARK  status: ('A' for Active; 'I' for Inactive)
REMARK    1  A    between atoms: C1_1  and  C2_2
REMARK    2  A    between atoms: C2_2  and  O1_10
REMARK    3  A    between atoms: C3_3  and  C4_4
REMARK    4  A    between atoms: C4_4  and  S1_5
REMARK    5  A    between atoms: S1_5  and  S2_6
REMARK    6  A    between atoms: S2_6  and  C5_7
REMARK    7  A    between atoms: C5_7  and  C6_8
REMARK                            x       y       z     vdW  Elec       q    Type
REMARK                         _______ _______ _______ _____ _____    ______ ____
ROOT
ATOM      1  C4  UNL     1       2.999  57.908  80.649  0.00  0.00    +0.000 C 
ENDROOT
BRANCH   1   4
ATOM      2  C1  UNL     1       0.830  58.639  77.532  0.00  0.00    +0.000 C 
ATOM      3  C2  UNL     1       1.461  57.923  78.689  0.00  0.00    +0.000 C 
ATOM      4  C3  UNL     1       2.341  58.563  79.470  0.00  0.00    +0.000 C 
BRANCH   3   5
ATOM      5  O1  UNL     1       1.118  56.598  78.958  0.00  0.00    +0.000 OA
ATOM      6  H12 UNL     1       0.171  56.260  78.837  0.00  0.00    +0.000 HD
ENDBRANCH   3   5
ENDBRANCH   1   4
BRANCH   1   7
ATOM      7  S1  UNL     1       3.839  59.143  81.698  0.00  0.00    +0.000 S 
BRANCH   7   8
ATOM      8  S2  UNL     1       2.792  60.811  80.862  0.00  0.00    +0.000 S 
BRANCH   8   9
ATOM      9  C5  UNL     1       4.171  61.978  81.103  0.00  0.00    +0.000 C 
BRANCH   9  10
ATOM     10  C6  UNL     1       3.649  63.301  81.584  0.00  0.00    +0.000 C 
ATOM     11  C7  UNL     1       3.791  64.420  80.867  0.00  0.00    +0.000 C 
ENDBRANCH   9  10
ENDBRANCH   8   9
ENDBRANCH   7   8
ENDBRANCH   1   7
TORSDOF 6
ENDMDL
MODEL 6
REMARK VINA RESULT:      -3.0      2.836      4.884
REMARK  Name = .\Allicin.pdb
REMARK  7 active torsions:
REMARK  status: ('A' for Active; 'I' for Inactive)
REMARK    1  A    between atoms: C1_1  and  C2_2
REMARK    2  A    between atoms: C2_2  and  O1_10
REMARK    3  A    between atoms: C3_3  and  C4_4
REMARK    4  A    between atoms: C4_4  and  S1_5
REMARK    5  A    between atoms: S1_5  and  S2_6
REMARK    6  A    between atoms: S2_6  and  C5_7
REMARK    7  A    between atoms: C5_7  and  C6_8
REMARK                            x       y       z     vdW  Elec       q    Type
REMARK                         _______ _______ _______ _____ _____    ______ ____
ROOT
ATOM      1  C4  UNL     1       2.604  60.539  80.919  0.00  0.00    +0.000 C 
ENDROOT
BRANCH   1   4
ATOM      2  C1  UNL     1       0.814  58.959  77.877  0.00  0.00    +0.000 C 
ATOM      3  C2  UNL     1       1.175  59.913  78.976  0.00  0.00    +0.000 C 
ATOM      4  C3  UNL     1       2.184  59.622  79.807  0.00  0.00    +0.000 C 
BRANCH   3   5
ATOM      5  O1  UNL     1       0.470  61.107  79.120  0.00  0.00    +0.000 OA
ATOM      6  H12 UNL     1       0.944  62.002  79.159  0.00  0.00    +0.000 HD
ENDBRANCH   3   5
ENDBRANCH   1   4
BRANCH   1   7
ATOM      7  S1  UNL     1       3.923  59.781  81.928  0.00  0.00    +0.000 S 
BRANCH   7   8
ATOM      8  S2  UNL     1       3.511  57.788  81.271  0.00  0.00    +0.000 S 
BRANCH   8   9
ATOM      9  C5  UNL     1       3.708  57.051  82.926  0.00  0.00    +0.000 C 
BRANCH   9  10
ATOM     10  C6  UNL     1       2.734  55.922  83.106  0.00  0.00    +0.000 C 
ATOM     11  C7  UNL     1       1.962  55.488  82.105  0.00  0.00    +0.000 C 
ENDBRANCH   9  10
ENDBRANCH   8   9
ENDBRANCH   7   8
ENDBRANCH   1   7
TORSDOF 6
ENDMDL
MODEL 7
REMARK VINA RESULT:      -2.8      2.142      2.774
REMARK  Name = .\Allicin.pdb
REMARK  7 active torsions:
REMARK  status: ('A' for Active; 'I' for Inactive)
REMARK    1  A    between atoms: C1_1  and  C2_2
REMARK    2  A    between atoms: C2_2  and  O1_10
REMARK    3  A    between atoms: C3_3  and  C4_4
REMARK    4  A    between atoms: C4_4  and  S1_5
REMARK    5  A    between atoms: S1_5  and  S2_6
REMARK    6  A    between atoms: S2_6  and  C5_7
REMARK    7  A    between atoms: C5_7  and  C6_8
REMARK                            x       y       z     vdW  Elec       q    Type
REMARK                         _______ _______ _______ _____ _____    ______ ____
ROOT
ATOM      1  C4  UNL     1       4.214  60.769  82.504  0.00  0.00    +0.000 C 
ENDROOT
BRANCH   1   4
ATOM      2  C1  UNL     1       1.587  60.522  79.676  0.00  0.00    +0.000 C 
ATOM      3  C2  UNL     1       2.711  60.176  80.607  0.00  0.00    +0.000 C 
ATOM      4  C3  UNL     1       3.104  61.058  81.534  0.00  0.00    +0.000 C 
BRANCH   3   5
ATOM      5  O1  UNL     1       3.334  58.931  80.513  0.00  0.00    +0.000 OA
ATOM      6  H12 UNL     1       2.812  58.093  80.287  0.00  0.00    +0.000 HD
ENDBRANCH   3   5
ENDBRANCH   1   4
BRANCH   1   7
ATOM      7  S1  UNL     1       4.787  62.299  83.316  0.00  0.00    +0.000 S 
BRANCH   7   8
ATOM      8  S2  UNL     1       5.785  63.047  81.578  0.00  0.00    +0.000 S 
BRANCH   8   9
ATOM      9  C5  UNL     1       5.350  64.786  81.903  0.00  0.00    +0.000 C 
BRANCH   9  10
ATOM     10  C6  UNL     1       4.304  65.246  80.929  0.00  0.00    +0.000 C 
ATOM     11  C7  UNL     1       3.073  64.725  80.915  0.00  0.00    +0.000 C 
ENDBRANCH   9  10
ENDBRANCH   8   9
ENDBRANCH   7   8
ENDBRANCH   1   7
TORSDOF 6
ENDMDL
MODEL 8
REMARK VINA RESULT:      -2.8      2.127      2.190
REMARK  Name = .\Allicin.pdb
REMARK  7 active torsions:
REMARK  status: ('A' for Active; 'I' for Inactive)
REMARK    1  A    between atoms: C1_1  and  C2_2
REMARK    2  A    between atoms: C2_2  and  O1_10
REMARK    3  A    between atoms: C3_3  and  C4_4
REMARK    4  A    between atoms: C4_4  and  S1_5
REMARK    5  A    between atoms: S1_5  and  S2_6
REMARK    6  A    between atoms: S2_6  and  C5_7
REMARK    7  A    between atoms: C5_7  and  C6_8
REMARK                            x       y       z     vdW  Elec       q    Type
REMARK                         _______ _______ _______ _____ _____    ______ ____
ROOT
ATOM      1  C4  UNL     1       2.272  60.677  80.587  0.00  0.00    +0.000 C 
ENDROOT
BRANCH   1   4
ATOM      2  C1  UNL     1       0.743  58.736  77.612  0.00  0.00    +0.000 C 
ATOM      3  C2  UNL     1       1.566  59.067  78.821  0.00  0.00    +0.000 C 
ATOM      4  C3  UNL     1       1.484  60.286  79.370  0.00  0.00    +0.000 C 
BRANCH   3   5
ATOM      5  O1  UNL     1       2.402  58.100  79.380  0.00  0.00    +0.000 OA
ATOM      6  H12 UNL     1       2.359  57.130  79.091  0.00  0.00    +0.000 HD
ENDBRANCH   3   5
ENDBRANCH   1   4
BRANCH   1   7
ATOM      7  S1  UNL     1       3.070  62.302  80.354  0.00  0.00    +0.000 S 
BRANCH   7   8
ATOM      8  S2  UNL     1       4.887  61.736  81.331  0.00  0.00    +0.000 S 
BRANCH   8   9
ATOM      9  C5  UNL     1       4.203  61.911  83.011  0.00  0.00    +0.000 C 
BRANCH   9  10
ATOM     10  C6  UNL     1       4.308  63.338  83.464  0.00  0.00    +0.000 C 
ATOM     11  C7  UNL     1       5.414  64.063  83.268  0.00  0.00    +0.000 C 
ENDBRANCH   9  10
ENDBRANCH   8   9
ENDBRANCH   7   8
ENDBRANCH   1   7
TORSDOF 6
ENDMDL
MODEL 9
REMARK VINA RESULT:      -2.7      3.158      5.159
REMARK  Name = .\Allicin.pdb
REMARK  7 active torsions:
REMARK  status: ('A' for Active; 'I' for Inactive)
REMARK    1  A    between atoms: C1_1  and  C2_2
REMARK    2  A    between atoms: C2_2  and  O1_10
REMARK    3  A    between atoms: C3_3  and  C4_4
REMARK    4  A    between atoms: C4_4  and  S1_5
REMARK    5  A    between atoms: S1_5  and  S2_6
REMARK    6  A    between atoms: S2_6  and  C5_7
REMARK    7  A    between atoms: C5_7  and  C6_8
REMARK                            x       y       z     vdW  Elec       q    Type
REMARK                         _______ _______ _______ _____ _____    ______ ____
ROOT
ATOM      1  C4  UNL     1       2.569  59.871  80.620  0.00  0.00    +0.000 C 
ENDROOT
BRANCH   1   4
ATOM      2  C1  UNL     1       0.824  58.558  77.428  0.00  0.00    +0.000 C 
ATOM      3  C2  UNL     1       1.133  59.380  78.644  0.00  0.00    +0.000 C 
ATOM      4  C3  UNL     1       2.198  59.081  79.398  0.00  0.00    +0.000 C 
BRANCH   3   5
ATOM      5  O1  UNL     1       0.319  60.463  78.977  0.00  0.00    +0.000 OA
ATOM      6  H12 UNL     1      -0.667  60.344  79.176  0.00  0.00    +0.000 HD
ENDBRANCH   3   5
ENDBRANCH   1   4
BRANCH   1   7
ATOM      7  S1  UNL     1       3.748  58.946  81.663  0.00  0.00    +0.000 S 
BRANCH   7   8
ATOM      8  S2  UNL     1       3.156  57.029  80.922  0.00  0.00    +0.000 S 
BRANCH   8   9
ATOM      9  C5  UNL     1       4.086  56.098  82.183  0.00  0.00    +0.000 C 
BRANCH   9  10
ATOM     10  C6  UNL     1       5.109  55.218  81.524  0.00  0.00    +0.000 C 
ATOM     11  C7  UNL     1       5.464  55.381  80.246  0.00  0.00    +0.000 C 
ENDBRANCH   9  10
ENDBRANCH   8   9
ENDBRANCH   7   8
ENDBRANCH   1   7
TORSDOF 6
ENDMDL
