MODEL 1
REMARK VINA RESULT:      -3.6      0.000      0.000
REMARK  Name = .\Allicin.pdb
REMARK  7 active torsions:
REMARK  status: ('A' for Active; 'I' for Inactive)
REMARK    1  A    between atoms: C1_1  and  C2_2
REMARK    2  A    between atoms: C2_2  and  O1_10
REMARK    3  A    between atoms: C3_3  and  C4_4
REMARK    4  A    between atoms: C4_4  and  S1_5
REMARK    5  A    between atoms: S1_5  and  S2_6
REMARK    6  A    between atoms: S2_6  and  C5_7
REMARK    7  A    between atoms: C5_7  and  C6_8
REMARK                            x       y       z     vdW  Elec       q    Type
REMARK                         _______ _______ _______ _____ _____    ______ ____
ROOT
ATOM      1  C4  UNL     1     -16.170  80.018  49.318  0.00  0.00    +0.000 C 
ENDROOT
BRANCH   1   4
ATOM      2  C1  UNL     1     -12.755  81.446  48.197  0.00  0.00    +0.000 C 
ATOM      3  C2  UNL     1     -13.871  80.483  48.479  0.00  0.00    +0.000 C 
ATOM      4  C3  UNL     1     -15.012  80.926  49.022  0.00  0.00    +0.000 C 
BRANCH   3   5
ATOM      5  O1  UNL     1     -13.723  79.134  48.160  0.00  0.00    +0.000 OA
ATOM      6  H12 UNL     1     -13.028  78.554  48.616  0.00  0.00    +0.000 HD
ENDBRANCH   3   5
ENDBRANCH   1   4
BRANCH   1   7
ATOM      7  S1  UNL     1     -17.640  80.497  48.348  0.00  0.00    +0.000 S 
BRANCH   7   8
ATOM      8  S2  UNL     1     -17.036  79.433  46.593  0.00  0.00    +0.000 S 
BRANCH   8   9
ATOM      9  C5  UNL     1     -17.172  80.881  45.496  0.00  0.00    +0.000 C 
BRANCH   9  10
ATOM     10  C6  UNL     1     -15.893  81.668  45.521  0.00  0.00    +0.000 C 
ATOM     11  C7  UNL     1     -15.834  82.906  46.022  0.00  0.00    +0.000 C 
ENDBRANCH   9  10
ENDBRANCH   8   9
ENDBRANCH   7   8
ENDBRANCH   1   7
TORSDOF 6
ENDMDL
MODEL 2
REMARK VINA RESULT:      -3.1      1.620      1.705
REMARK  Name = .\Allicin.pdb
REMARK  7 active torsions:
REMARK  status: ('A' for Active; 'I' for Inactive)
REMARK    1  A    between atoms: C1_1  and  C2_2
REMARK    2  A    between atoms: C2_2  and  O1_10
REMARK    3  A    between atoms: C3_3  and  C4_4
REMARK    4  A    between atoms: C4_4  and  S1_5
REMARK    5  A    between atoms: S1_5  and  S2_6
REMARK    6  A    between atoms: S2_6  and  C5_7
REMARK    7  A    between atoms: C5_7  and  C6_8
REMARK                            x       y       z     vdW  Elec       q    Type
REMARK                         _______ _______ _______ _____ _____    ______ ____
ROOT
ATOM      1  C4  UNL     1     -16.286  80.918  48.385  0.00  0.00    +0.000 C 
ENDROOT
BRANCH   1   4
ATOM      2  C1  UNL     1     -12.437  81.244  48.197  0.00  0.00    +0.000 C 
ATOM      3  C2  UNL     1     -13.899  81.518  48.001  0.00  0.00    +0.000 C 
ATOM      4  C3  UNL     1     -14.809  80.694  48.535  0.00  0.00    +0.000 C 
BRANCH   3   5
ATOM      5  O1  UNL     1     -14.305  82.638  47.276  0.00  0.00    +0.000 OA
ATOM      6  H12 UNL     1     -14.738  83.434  47.729  0.00  0.00    +0.000 HD
ENDBRANCH   3   5
ENDBRANCH   1   4
BRANCH   1   7
ATOM      7  S1  UNL     1     -17.179  79.330  48.265  0.00  0.00    +0.000 S 
BRANCH   7   8
ATOM      8  S2  UNL     1     -17.849  79.668  46.261  0.00  0.00    +0.000 S 
BRANCH   8   9
ATOM      9  C5  UNL     1     -16.231  79.299  45.509  0.00  0.00    +0.000 C 
BRANCH   9  10
ATOM     10  C6  UNL     1     -15.863  80.374  44.526  0.00  0.00    +0.000 C 
ATOM     11  C7  UNL     1     -16.306  81.629  44.652  0.00  0.00    +0.000 C 
ENDBRANCH   9  10
ENDBRANCH   8   9
ENDBRANCH   7   8
ENDBRANCH   1   7
TORSDOF 6
ENDMDL
MODEL 3
REMARK VINA RESULT:      -3.0      2.378      3.312
REMARK  Name = .\Allicin.pdb
REMARK  7 active torsions:
REMARK  status: ('A' for Active; 'I' for Inactive)
REMARK    1  A    between atoms: C1_1  and  C2_2
REMARK    2  A    between atoms: C2_2  and  O1_10
REMARK    3  A    between atoms: C3_3  and  C4_4
REMARK    4  A    between atoms: C4_4  and  S1_5
REMARK    5  A    between atoms: S1_5  and  S2_6
REMARK    6  A    between atoms: S2_6  and  C5_7
REMARK    7  A    between atoms: C5_7  and  C6_8
REMARK                            x       y       z     vdW  Elec       q    Type
REMARK                         _______ _______ _______ _____ _____    ______ ____
ROOT
ATOM      1  C4  UNL     1     -15.491  80.402  49.567  0.00  0.00    +0.000 C 
ENDROOT
BRANCH   1   4
ATOM      2  C1  UNL     1     -18.608  78.311  48.637  0.00  0.00    +0.000 C 
ATOM      3  C2  UNL     1     -17.277  78.703  49.206  0.00  0.00    +0.000 C 
ATOM      4  C3  UNL     1     -16.809  79.943  49.015  0.00  0.00    +0.000 C 
BRANCH   3   5
ATOM      5  O1  UNL     1     -16.537  77.780  49.945  0.00  0.00    +0.000 OA
ATOM      6  H12 UNL     1     -15.587  77.974  50.238  0.00  0.00    +0.000 HD
ENDBRANCH   3   5
ENDBRANCH   1   4
BRANCH   1   7
ATOM      7  S1  UNL     1     -14.133  80.041  48.403  0.00  0.00    +0.000 S 
BRANCH   7   8
ATOM      8  S2  UNL     1     -14.272  81.922  47.395  0.00  0.00    +0.000 S 
BRANCH   8   9
ATOM      9  C5  UNL     1     -15.225  81.260  45.991  0.00  0.00    +0.000 C 
BRANCH   9  10
ATOM     10  C6  UNL     1     -16.373  82.172  45.671  0.00  0.00    +0.000 C 
ATOM     11  C7  UNL     1     -16.362  83.466  46.005  0.00  0.00    +0.000 C 
ENDBRANCH   9  10
ENDBRANCH   8   9
ENDBRANCH   7   8
ENDBRANCH   1   7
TORSDOF 6
ENDMDL
MODEL 4
REMARK VINA RESULT:      -3.0      2.210      3.964
REMARK  Name = .\Allicin.pdb
REMARK  7 active torsions:
REMARK  status: ('A' for Active; 'I' for Inactive)
REMARK    1  A    between atoms: C1_1  and  C2_2
REMARK    2  A    between atoms: C2_2  and  O1_10
REMARK    3  A    between atoms: C3_3  and  C4_4
REMARK    4  A    between atoms: C4_4  and  S1_5
REMARK    5  A    between atoms: S1_5  and  S2_6
REMARK    6  A    between atoms: S2_6  and  C5_7
REMARK    7  A    between atoms: C5_7  and  C6_8
REMARK                            x       y       z     vdW  Elec       q    Type
REMARK                         _______ _______ _______ _____ _____    ______ ____
ROOT
ATOM      1  C4  UNL     1     -17.631  80.234  45.533  0.00  0.00    +0.000 C 
ENDROOT
BRANCH   1   4
ATOM      2  C1  UNL     1     -18.061  79.662  49.334  0.00  0.00    +0.000 C 
ATOM      3  C2  UNL     1     -17.771  79.417  47.883  0.00  0.00    +0.000 C 
ATOM      4  C3  UNL     1     -17.916  80.410  46.997  0.00  0.00    +0.000 C 
BRANCH   3   5
ATOM      5  O1  UNL     1     -17.335  78.160  47.463  0.00  0.00    +0.000 OA
ATOM      6  H12 UNL     1     -17.969  77.371  47.405  0.00  0.00    +0.000 HD
ENDBRANCH   3   5
ENDBRANCH   1   4
BRANCH   1   7
ATOM      7  S1  UNL     1     -15.894  80.644  45.152  0.00  0.00    +0.000 S 
BRANCH   7   8
ATOM      8  S2  UNL     1     -15.895  82.451  46.298  0.00  0.00    +0.000 S 
BRANCH   8   9
ATOM      9  C5  UNL     1     -14.350  82.058  47.180  0.00  0.00    +0.000 C 
BRANCH   9  10
ATOM     10  C6  UNL     1     -14.660  81.465  48.525  0.00  0.00    +0.000 C 
ATOM     11  C7  UNL     1     -14.328  80.209  48.837  0.00  0.00    +0.000 C 
ENDBRANCH   9  10
ENDBRANCH   8   9
ENDBRANCH   7   8
ENDBRANCH   1   7
TORSDOF 6
ENDMDL
MODEL 5
REMARK VINA RESULT:      -2.9      2.261      3.802
REMARK  Name = .\Allicin.pdb
REMARK  7 active torsions:
REMARK  status: ('A' for Active; 'I' for Inactive)
REMARK    1  A    between atoms: C1_1  and  C2_2
REMARK    2  A    between atoms: C2_2  and  O1_10
REMARK    3  A    between atoms: C3_3  and  C4_4
REMARK    4  A    between atoms: C4_4  and  S1_5
REMARK    5  A    between atoms: S1_5  and  S2_6
REMARK    6  A    between atoms: S2_6  and  C5_7
REMARK    7  A    between atoms: C5_7  and  C6_8
REMARK                            x       y       z     vdW  Elec       q    Type
REMARK                         _______ _______ _______ _____ _____    ______ ____
ROOT
ATOM      1  C4  UNL     1     -16.964  79.640  46.926  0.00  0.00    +0.000 C 
ENDROOT
BRANCH   1   4
ATOM      2  C1  UNL     1     -18.505  77.780  49.947  0.00  0.00    +0.000 C 
ATOM      3  C2  UNL     1     -17.519  78.487  49.064  0.00  0.00    +0.000 C 
ATOM      4  C3  UNL     1     -17.897  78.915  47.853  0.00  0.00    +0.000 C 
BRANCH   3   5
ATOM      5  O1  UNL     1     -16.218  78.710  49.513  0.00  0.00    +0.000 OA
ATOM      6  H12 UNL     1     -15.970  78.614  50.491  0.00  0.00    +0.000 HD
ENDBRANCH   3   5
ENDBRANCH   1   4
BRANCH   1   7
ATOM      7  S1  UNL     1     -17.727  81.176  46.300  0.00  0.00    +0.000 S 
BRANCH   7   8
ATOM      8  S2  UNL     1     -15.874  82.238  46.164  0.00  0.00    +0.000 S 
BRANCH   8   9
ATOM      9  C5  UNL     1     -14.936  81.007  47.126  0.00  0.00    +0.000 C 
BRANCH   9  10
ATOM     10  C6  UNL     1     -13.977  81.699  48.051  0.00  0.00    +0.000 C 
ATOM     11  C7  UNL     1     -12.712  81.290  48.194  0.00  0.00    +0.000 C 
ENDBRANCH   9  10
ENDBRANCH   8   9
ENDBRANCH   7   8
ENDBRANCH   1   7
TORSDOF 6
ENDMDL
MODEL 6
REMARK VINA RESULT:      -2.9      2.074      3.099
REMARK  Name = .\Allicin.pdb
REMARK  7 active torsions:
REMARK  status: ('A' for Active; 'I' for Inactive)
REMARK    1  A    between atoms: C1_1  and  C2_2
REMARK    2  A    between atoms: C2_2  and  O1_10
REMARK    3  A    between atoms: C3_3  and  C4_4
REMARK    4  A    between atoms: C4_4  and  S1_5
REMARK    5  A    between atoms: S1_5  and  S2_6
REMARK    6  A    between atoms: S2_6  and  C5_7
REMARK    7  A    between atoms: C5_7  and  C6_8
REMARK                            x       y       z     vdW  Elec       q    Type
REMARK                         _______ _______ _______ _____ _____    ______ ____
ROOT
ATOM      1  C4  UNL     1     -15.453  82.318  46.181  0.00  0.00    +0.000 C 
ENDROOT
BRANCH   1   4
ATOM      2  C1  UNL     1     -14.890  80.636  49.617  0.00  0.00    +0.000 C 
ATOM      3  C2  UNL     1     -14.646  81.409  48.355  0.00  0.00    +0.000 C 
ATOM      4  C3  UNL     1     -15.629  81.547  47.457  0.00  0.00    +0.000 C 
BRANCH   3   5
ATOM      5  O1  UNL     1     -13.400  81.994  48.128  0.00  0.00    +0.000 OA
ATOM      6  H12 UNL     1     -12.539  81.476  48.260  0.00  0.00    +0.000 HD
ENDBRANCH   3   5
ENDBRANCH   1   4
BRANCH   1   7
ATOM      7  S1  UNL     1     -16.540  81.664  44.868  0.00  0.00    +0.000 S 
BRANCH   7   8
ATOM      8  S2  UNL     1     -16.225  79.615  45.396  0.00  0.00    +0.000 S 
BRANCH   8   9
ATOM      9  C5  UNL     1     -17.975  79.302  45.793  0.00  0.00    +0.000 C 
BRANCH   9  10
ATOM     10  C6  UNL     1     -18.103  78.816  47.209  0.00  0.00    +0.000 C 
ATOM     11  C7  UNL     1     -18.725  79.534  48.149  0.00  0.00    +0.000 C 
ENDBRANCH   9  10
ENDBRANCH   8   9
ENDBRANCH   7   8
ENDBRANCH   1   7
TORSDOF 6
ENDMDL
MODEL 7
REMARK VINA RESULT:      -2.7      2.256      3.773
REMARK  Name = .\Allicin.pdb
REMARK  7 active torsions:
REMARK  status: ('A' for Active; 'I' for Inactive)
REMARK    1  A    between atoms: C1_1  and  C2_2
REMARK    2  A    between atoms: C2_2  and  O1_10
REMARK    3  A    between atoms: C3_3  and  C4_4
REMARK    4  A    between atoms: C4_4  and  S1_5
REMARK    5  A    between atoms: S1_5  and  S2_6
REMARK    6  A    between atoms: S2_6  and  C5_7
REMARK    7  A    between atoms: C5_7  and  C6_8
REMARK                            x       y       z     vdW  Elec       q    Type
REMARK                         _______ _______ _______ _____ _____    ______ ____
ROOT
ATOM      1  C4  UNL     1     -13.514  81.462  47.461  0.00  0.00    +0.000 C 
ENDROOT
BRANCH   1   4
ATOM      2  C1  UNL     1     -16.772  82.961  46.012  0.00  0.00    +0.000 C 
ATOM      3  C2  UNL     1     -15.532  82.130  46.160  0.00  0.00    +0.000 C 
ATOM      4  C3  UNL     1     -14.761  82.271  47.246  0.00  0.00    +0.000 C 
BRANCH   3   5
ATOM      5  O1  UNL     1     -15.194  81.203  45.175  0.00  0.00    +0.000 OA
ATOM      6  H12 UNL     1     -15.851  80.933  44.453  0.00  0.00    +0.000 HD
ENDBRANCH   3   5
ENDBRANCH   1   4
BRANCH   1   7
ATOM      7  S1  UNL     1     -13.913  79.814  48.139  0.00  0.00    +0.000 S 
BRANCH   7   8
ATOM      8  S2  UNL     1     -15.238  80.568  49.639  0.00  0.00    +0.000 S 
BRANCH   8   9
ATOM      9  C5  UNL     1     -16.641  79.525  49.125  0.00  0.00    +0.000 C 
BRANCH   9  10
ATOM     10  C6  UNL     1     -17.762  80.384  48.615  0.00  0.00    +0.000 C 
ATOM     11  C7  UNL     1     -18.452  80.066  47.515  0.00  0.00    +0.000 C 
ENDBRANCH   9  10
ENDBRANCH   8   9
ENDBRANCH   7   8
ENDBRANCH   1   7
TORSDOF 6
ENDMDL
MODEL 8
REMARK VINA RESULT:      -2.7      2.033      4.319
REMARK  Name = .\Allicin.pdb
REMARK  7 active torsions:
REMARK  status: ('A' for Active; 'I' for Inactive)
REMARK    1  A    between atoms: C1_1  and  C2_2
REMARK    2  A    between atoms: C2_2  and  O1_10
REMARK    3  A    between atoms: C3_3  and  C4_4
REMARK    4  A    between atoms: C4_4  and  S1_5
REMARK    5  A    between atoms: S1_5  and  S2_6
REMARK    6  A    between atoms: S2_6  and  C5_7
REMARK    7  A    between atoms: C5_7  and  C6_8
REMARK                            x       y       z     vdW  Elec       q    Type
REMARK                         _______ _______ _______ _____ _____    ______ ____
ROOT
ATOM      1  C4  UNL     1     -15.852  80.451  45.177  0.00  0.00    +0.000 C 
ENDROOT
BRANCH   1   4
ATOM      2  C1  UNL     1     -17.766  83.712  44.363  0.00  0.00    +0.000 C 
ATOM      3  C2  UNL     1     -16.795  82.749  44.980  0.00  0.00    +0.000 C 
ATOM      4  C3  UNL     1     -16.805  81.462  44.608  0.00  0.00    +0.000 C 
BRANCH   3   5
ATOM      5  O1  UNL     1     -15.875  83.199  45.926  0.00  0.00    +0.000 OA
ATOM      6  H12 UNL     1     -15.724  84.187  46.092  0.00  0.00    +0.000 HD
ENDBRANCH   3   5
ENDBRANCH   1   4
BRANCH   1   7
ATOM      7  S1  UNL     1     -16.744  79.185  46.144  0.00  0.00    +0.000 S 
BRANCH   7   8
ATOM      8  S2  UNL     1     -16.910  80.400  47.896  0.00  0.00    +0.000 S 
BRANCH   8   9
ATOM      9  C5  UNL     1     -15.255  79.968  48.524  0.00  0.00    +0.000 C 
BRANCH   9  10
ATOM     10  C6  UNL     1     -14.479  81.216  48.834  0.00  0.00    +0.000 C 
ATOM     11  C7  UNL     1     -13.395  81.566  48.136  0.00  0.00    +0.000 C 
ENDBRANCH   9  10
ENDBRANCH   8   9
ENDBRANCH   7   8
ENDBRANCH   1   7
TORSDOF 6
ENDMDL
MODEL 9
REMARK VINA RESULT:      -2.6      2.145      3.018
REMARK  Name = .\Allicin.pdb
REMARK  7 active torsions:
REMARK  status: ('A' for Active; 'I' for Inactive)
REMARK    1  A    between atoms: C1_1  and  C2_2
REMARK    2  A    between atoms: C2_2  and  O1_10
REMARK    3  A    between atoms: C3_3  and  C4_4
REMARK    4  A    between atoms: C4_4  and  S1_5
REMARK    5  A    between atoms: S1_5  and  S2_6
REMARK    6  A    between atoms: S2_6  and  C5_7
REMARK    7  A    between atoms: C5_7  and  C6_8
REMARK                            x       y       z     vdW  Elec       q    Type
REMARK                         _______ _______ _______ _____ _____    ______ ____
ROOT
ATOM      1  C4  UNL     1     -15.784  81.825  45.534  0.00  0.00    +0.000 C 
ENDROOT
BRANCH   1   4
ATOM      2  C1  UNL     1     -13.859  81.491  48.872  0.00  0.00    +0.000 C 
ATOM      3  C2  UNL     1     -14.627  81.140  47.631  0.00  0.00    +0.000 C 
ATOM      4  C3  UNL     1     -15.023  82.109  46.797  0.00  0.00    +0.000 C 
BRANCH   3   5
ATOM      5  O1  UNL     1     -14.912  79.806  47.343  0.00  0.00    +0.000 OA
ATOM      6  H12 UNL     1     -14.537  79.050  47.905  0.00  0.00    +0.000 HD
ENDBRANCH   3   5
ENDBRANCH   1   4
BRANCH   1   7
ATOM      7  S1  UNL     1     -17.316  82.813  45.457  0.00  0.00    +0.000 S 
BRANCH   7   8
ATOM      8  S2  UNL     1     -18.413  81.336  44.366  0.00  0.00    +0.000 S 
BRANCH   8   9
ATOM      9  C5  UNL     1     -17.823  79.944  45.383  0.00  0.00    +0.000 C 
BRANCH   9  10
ATOM     10  C6  UNL     1     -17.467  78.779  44.504  0.00  0.00    +0.000 C 
ATOM     11  C7  UNL     1     -16.206  78.360  44.363  0.00  0.00    +0.000 C 
ENDBRANCH   9  10
ENDBRANCH   8   9
ENDBRANCH   7   8
ENDBRANCH   1   7
TORSDOF 6
ENDMDL
