MODEL 1
REMARK VINA RESULT:       0.6      0.000      0.000
REMARK  Name = .\Allicin.pdb
REMARK  7 active torsions:
REMARK  status: ('A' for Active; 'I' for Inactive)
REMARK    1  A    between atoms: C1_1  and  C2_2
REMARK    2  A    between atoms: C2_2  and  O1_10
REMARK    3  A    between atoms: C3_3  and  C4_4
REMARK    4  A    between atoms: C4_4  and  S1_5
REMARK    5  A    between atoms: S1_5  and  S2_6
REMARK    6  A    between atoms: S2_6  and  C5_7
REMARK    7  A    between atoms: C5_7  and  C6_8
REMARK                            x       y       z     vdW  Elec       q    Type
REMARK                         _______ _______ _______ _____ _____    ______ ____
ROOT
ATOM      1  C4  UNL     1      -6.172  51.883  -5.640  0.00  0.00    +0.000 C 
ENDROOT
BRANCH   1   4
ATOM      2  C1  UNL     1      -7.300  55.249  -7.174  0.00  0.00    +0.000 C 
ATOM      3  C2  UNL     1      -6.573  53.954  -6.967  0.00  0.00    +0.000 C 
ATOM      4  C3  UNL     1      -6.854  53.195  -5.900  0.00  0.00    +0.000 C 
BRANCH   3   5
ATOM      5  O1  UNL     1      -5.617  53.536  -7.893  0.00  0.00    +0.000 OA
ATOM      6  H12 UNL     1      -5.412  52.554  -8.038  0.00  0.00    +0.000 HD
ENDBRANCH   3   5
ENDBRANCH   1   4
BRANCH   1   7
ATOM      7  S1  UNL     1      -5.337  51.891  -4.017  0.00  0.00    +0.000 S 
BRANCH   7   8
ATOM      8  S2  UNL     1      -3.366  51.785  -4.843  0.00  0.00    +0.000 S 
BRANCH   8   9
ATOM      9  C5  UNL     1      -2.580  52.645  -3.443  0.00  0.00    +0.000 C 
BRANCH   9  10
ATOM     10  C6  UNL     1      -3.578  53.536  -2.760  0.00  0.00    +0.000 C 
ATOM     11  C7  UNL     1      -3.313  54.817  -2.490  0.00  0.00    +0.000 C 
ENDBRANCH   9  10
ENDBRANCH   8   9
ENDBRANCH   7   8
ENDBRANCH   1   7
TORSDOF 6
ENDMDL
MODEL 2
REMARK VINA RESULT:       0.8      2.187      4.775
REMARK  Name = .\Allicin.pdb
REMARK  7 active torsions:
REMARK  status: ('A' for Active; 'I' for Inactive)
REMARK    1  A    between atoms: C1_1  and  C2_2
REMARK    2  A    between atoms: C2_2  and  O1_10
REMARK    3  A    between atoms: C3_3  and  C4_4
REMARK    4  A    between atoms: C4_4  and  S1_5
REMARK    5  A    between atoms: S1_5  and  S2_6
REMARK    6  A    between atoms: S2_6  and  C5_7
REMARK    7  A    between atoms: C5_7  and  C6_8
REMARK                            x       y       z     vdW  Elec       q    Type
REMARK                         _______ _______ _______ _____ _____    ______ ____
ROOT
ATOM      1  C4  UNL     1      -6.169  51.730  -4.939  0.00  0.00    +0.000 C 
ENDROOT
BRANCH   1   4
ATOM      2  C1  UNL     1      -3.066  53.041  -3.039  0.00  0.00    +0.000 C 
ATOM      3  C2  UNL     1      -4.405  52.993  -3.713  0.00  0.00    +0.000 C 
ATOM      4  C3  UNL     1      -4.835  51.849  -4.261  0.00  0.00    +0.000 C 
BRANCH   3   5
ATOM      5  O1  UNL     1      -5.205  54.134  -3.753  0.00  0.00    +0.000 OA
ATOM      6  H12 UNL     1      -5.037  54.922  -3.139  0.00  0.00    +0.000 HD
ENDBRANCH   3   5
ENDBRANCH   1   4
BRANCH   1   7
ATOM      7  S1  UNL     1      -5.971  51.272  -6.695  0.00  0.00    +0.000 S 
BRANCH   7   8
ATOM      8  S2  UNL     1      -5.544  53.266  -7.340  0.00  0.00    +0.000 S 
BRANCH   8   9
ATOM      9  C5  UNL     1      -6.962  54.004  -6.464  0.00  0.00    +0.000 C 
BRANCH   9  10
ATOM     10  C6  UNL     1      -7.441  55.224  -7.196  0.00  0.00    +0.000 C 
ATOM     11  C7  UNL     1      -8.661  55.290  -7.738  0.00  0.00    +0.000 C 
ENDBRANCH   9  10
ENDBRANCH   8   9
ENDBRANCH   7   8
ENDBRANCH   1   7
TORSDOF 6
ENDMDL
MODEL 3
REMARK VINA RESULT:       0.9      1.464      1.799
REMARK  Name = .\Allicin.pdb
REMARK  7 active torsions:
REMARK  status: ('A' for Active; 'I' for Inactive)
REMARK    1  A    between atoms: C1_1  and  C2_2
REMARK    2  A    between atoms: C2_2  and  O1_10
REMARK    3  A    between atoms: C3_3  and  C4_4
REMARK    4  A    between atoms: C4_4  and  S1_5
REMARK    5  A    between atoms: S1_5  and  S2_6
REMARK    6  A    between atoms: S2_6  and  C5_7
REMARK    7  A    between atoms: C5_7  and  C6_8
REMARK                            x       y       z     vdW  Elec       q    Type
REMARK                         _______ _______ _______ _____ _____    ______ ____
ROOT
ATOM      1  C4  UNL     1      -5.195  52.536  -6.690  0.00  0.00    +0.000 C 
ENDROOT
BRANCH   1   4
ATOM      2  C1  UNL     1      -7.741  55.290  -7.634  0.00  0.00    +0.000 C 
ATOM      3  C2  UNL     1      -6.943  54.306  -6.831  0.00  0.00    +0.000 C 
ATOM      4  C3  UNL     1      -6.035  53.532  -7.437  0.00  0.00    +0.000 C 
BRANCH   3   5
ATOM      5  O1  UNL     1      -7.138  54.212  -5.453  0.00  0.00    +0.000 OA
ATOM      6  H12 UNL     1      -6.359  54.129  -4.811  0.00  0.00    +0.000 HD
ENDBRANCH   3   5
ENDBRANCH   1   4
BRANCH   1   7
ATOM      7  S1  UNL     1      -6.240  51.406  -5.709  0.00  0.00    +0.000 S 
BRANCH   7   8
ATOM      8  S2  UNL     1      -5.145  51.699  -3.895  0.00  0.00    +0.000 S 
BRANCH   8   9
ATOM      9  C5  UNL     1      -3.518  51.729  -4.716  0.00  0.00    +0.000 C 
BRANCH   9  10
ATOM     10  C6  UNL     1      -2.526  52.469  -3.867  0.00  0.00    +0.000 C 
ATOM     11  C7  UNL     1      -2.909  53.341  -2.929  0.00  0.00    +0.000 C 
ENDBRANCH   9  10
ENDBRANCH   8   9
ENDBRANCH   7   8
ENDBRANCH   1   7
TORSDOF 6
ENDMDL
MODEL 4
REMARK VINA RESULT:       1.0      1.354      1.589
REMARK  Name = .\Allicin.pdb
REMARK  7 active torsions:
REMARK  status: ('A' for Active; 'I' for Inactive)
REMARK    1  A    between atoms: C1_1  and  C2_2
REMARK    2  A    between atoms: C2_2  and  O1_10
REMARK    3  A    between atoms: C3_3  and  C4_4
REMARK    4  A    between atoms: C4_4  and  S1_5
REMARK    5  A    between atoms: S1_5  and  S2_6
REMARK    6  A    between atoms: S2_6  and  C5_7
REMARK    7  A    between atoms: C5_7  and  C6_8
REMARK                            x       y       z     vdW  Elec       q    Type
REMARK                         _______ _______ _______ _____ _____    ______ ____
ROOT
ATOM      1  C4  UNL     1      -5.876  51.611  -5.675  0.00  0.00    +0.000 C 
ENDROOT
BRANCH   1   4
ATOM      2  C1  UNL     1      -7.183  54.972  -7.074  0.00  0.00    +0.000 C 
ATOM      3  C2  UNL     1      -6.884  53.844  -6.132  0.00  0.00    +0.000 C 
ATOM      4  C3  UNL     1      -6.217  52.768  -6.569  0.00  0.00    +0.000 C 
BRANCH   3   5
ATOM      5  O1  UNL     1      -7.286  53.926  -4.799  0.00  0.00    +0.000 OA
ATOM      6  H12 UNL     1      -7.597  53.108  -4.287  0.00  0.00    +0.000 HD
ENDBRANCH   3   5
ENDBRANCH   1   4
BRANCH   1   7
ATOM      7  S1  UNL     1      -4.124  51.672  -5.168  0.00  0.00    +0.000 S 
BRANCH   7   8
ATOM      8  S2  UNL     1      -4.545  52.392  -3.198  0.00  0.00    +0.000 S 
BRANCH   8   9
ATOM      9  C5  UNL     1      -2.949  53.254  -3.020  0.00  0.00    +0.000 C 
BRANCH   9  10
ATOM     10  C6  UNL     1      -3.158  54.599  -2.386  0.00  0.00    +0.000 C 
ATOM     11  C7  UNL     1      -4.293  55.287  -2.546  0.00  0.00    +0.000 C 
ENDBRANCH   9  10
ENDBRANCH   8   9
ENDBRANCH   7   8
ENDBRANCH   1   7
TORSDOF 6
ENDMDL
MODEL 5
REMARK VINA RESULT:       1.1      2.270      4.852
REMARK  Name = .\Allicin.pdb
REMARK  7 active torsions:
REMARK  status: ('A' for Active; 'I' for Inactive)
REMARK    1  A    between atoms: C1_1  and  C2_2
REMARK    2  A    between atoms: C2_2  and  O1_10
REMARK    3  A    between atoms: C3_3  and  C4_4
REMARK    4  A    between atoms: C4_4  and  S1_5
REMARK    5  A    between atoms: S1_5  and  S2_6
REMARK    6  A    between atoms: S2_6  and  C5_7
REMARK    7  A    between atoms: C5_7  and  C6_8
REMARK                            x       y       z     vdW  Elec       q    Type
REMARK                         _______ _______ _______ _____ _____    ______ ____
ROOT
ATOM      1  C4  UNL     1      -5.265  51.243  -5.302  0.00  0.00    +0.000 C 
ENDROOT
BRANCH   1   4
ATOM      2  C1  UNL     1      -2.991  53.123  -2.801  0.00  0.00    +0.000 C 
ATOM      3  C2  UNL     1      -3.444  52.311  -3.979  0.00  0.00    +0.000 C 
ATOM      4  C3  UNL     1      -4.745  52.039  -4.140  0.00  0.00    +0.000 C 
BRANCH   3   5
ATOM      5  O1  UNL     1      -2.511  51.856  -4.910  0.00  0.00    +0.000 OA
ATOM      6  H12 UNL     1      -2.416  52.288  -5.821  0.00  0.00    +0.000 HD
ENDBRANCH   3   5
ENDBRANCH   1   4
BRANCH   1   7
ATOM      7  S1  UNL     1      -6.918  51.828  -5.808  0.00  0.00    +0.000 S 
BRANCH   7   8
ATOM      8  S2  UNL     1      -6.529  53.873  -5.316  0.00  0.00    +0.000 S 
BRANCH   8   9
ATOM      9  C5  UNL     1      -7.751  54.536  -6.494  0.00  0.00    +0.000 C 
BRANCH   9  10
ATOM     10  C6  UNL     1      -7.052  55.236  -7.623  0.00  0.00    +0.000 C 
ATOM     11  C7  UNL     1      -6.071  54.651  -8.318  0.00  0.00    +0.000 C 
ENDBRANCH   9  10
ENDBRANCH   8   9
ENDBRANCH   7   8
ENDBRANCH   1   7
TORSDOF 6
ENDMDL
MODEL 6
REMARK VINA RESULT:       3.2      2.396      3.128
REMARK  Name = .\Allicin.pdb
REMARK  7 active torsions:
REMARK  status: ('A' for Active; 'I' for Inactive)
REMARK    1  A    between atoms: C1_1  and  C2_2
REMARK    2  A    between atoms: C2_2  and  O1_10
REMARK    3  A    between atoms: C3_3  and  C4_4
REMARK    4  A    between atoms: C4_4  and  S1_5
REMARK    5  A    between atoms: S1_5  and  S2_6
REMARK    6  A    between atoms: S2_6  and  C5_7
REMARK    7  A    between atoms: C5_7  and  C6_8
REMARK                            x       y       z     vdW  Elec       q    Type
REMARK                         _______ _______ _______ _____ _____    ______ ____
ROOT
ATOM      1  C4  UNL     1      -6.671  54.412  -6.983  0.00  0.00    +0.000 C 
ENDROOT
BRANCH   1   4
ATOM      2  C1  UNL     1      -7.681  52.670  -3.681  0.00  0.00    +0.000 C 
ATOM      3  C2  UNL     1      -6.956  53.536  -4.668  0.00  0.00    +0.000 C 
ATOM      4  C3  UNL     1      -7.346  53.558  -5.949  0.00  0.00    +0.000 C 
BRANCH   3   5
ATOM      5  O1  UNL     1      -5.887  54.326  -4.246  0.00  0.00    +0.000 OA
ATOM      6  H12 UNL     1      -6.004  55.042  -3.538  0.00  0.00    +0.000 HD
ENDBRANCH   3   5
ENDBRANCH   1   4
BRANCH   1   7
ATOM      7  S1  UNL     1      -5.495  53.429  -7.974  0.00  0.00    +0.000 S 
BRANCH   7   8
ATOM      8  S2  UNL     1      -5.667  51.681  -6.753  0.00  0.00    +0.000 S 
BRANCH   8   9
ATOM      9  C5  UNL     1      -4.113  51.986  -5.852  0.00  0.00    +0.000 C 
BRANCH   9  10
ATOM     10  C6  UNL     1      -4.254  51.555  -4.420  0.00  0.00    +0.000 C 
ATOM     11  C7  UNL     1      -3.687  52.234  -3.418  0.00  0.00    +0.000 C 
ENDBRANCH   9  10
ENDBRANCH   8   9
ENDBRANCH   7   8
ENDBRANCH   1   7
TORSDOF 6
ENDMDL
