MODEL 1
REMARK VINA RESULT:      -3.6      0.000      0.000
REMARK  Name = .\Allicin.pdb
REMARK  7 active torsions:
REMARK  status: ('A' for Active; 'I' for Inactive)
REMARK    1  A    between atoms: C1_1  and  C2_2
REMARK    2  A    between atoms: C2_2  and  O1_10
REMARK    3  A    between atoms: C3_3  and  C4_4
REMARK    4  A    between atoms: C4_4  and  S1_5
REMARK    5  A    between atoms: S1_5  and  S2_6
REMARK    6  A    between atoms: S2_6  and  C5_7
REMARK    7  A    between atoms: C5_7  and  C6_8
REMARK                            x       y       z     vdW  Elec       q    Type
REMARK                         _______ _______ _______ _____ _____    ______ ____
ROOT
ATOM      1  C4  UNL     1     -14.116  78.118 101.173  0.00  0.00    +0.000 C 
ENDROOT
BRANCH   1   4
ATOM      2  C1  UNL     1     -14.049  74.686 102.955  0.00  0.00    +0.000 C 
ATOM      3  C2  UNL     1     -13.801  75.772 101.950  0.00  0.00    +0.000 C 
ATOM      4  C3  UNL     1     -14.335  76.986 102.135  0.00  0.00    +0.000 C 
BRANCH   3   5
ATOM      5  O1  UNL     1     -13.003  75.518 100.834  0.00  0.00    +0.000 OA
ATOM      6  H12 UNL     1     -12.012  75.727 100.832  0.00  0.00    +0.000 HD
ENDBRANCH   3   5
ENDBRANCH   1   4
BRANCH   1   7
ATOM      7  S1  UNL     1     -13.401  79.568 102.022  0.00  0.00    +0.000 S 
BRANCH   7   8
ATOM      8  S2  UNL     1     -14.071  78.970 103.964  0.00  0.00    +0.000 S 
BRANCH   8   9
ATOM      9  C5  UNL     1     -12.438  79.178 104.746  0.00  0.00    +0.000 C 
BRANCH   9  10
ATOM     10  C6  UNL     1     -11.868  77.839 105.114  0.00  0.00    +0.000 C 
ATOM     11  C7  UNL     1     -11.232  77.072 104.223  0.00  0.00    +0.000 C 
ENDBRANCH   9  10
ENDBRANCH   8   9
ENDBRANCH   7   8
ENDBRANCH   1   7
TORSDOF 6
ENDMDL
MODEL 2
REMARK VINA RESULT:      -3.5      1.774      2.362
REMARK  Name = .\Allicin.pdb
REMARK  7 active torsions:
REMARK  status: ('A' for Active; 'I' for Inactive)
REMARK    1  A    between atoms: C1_1  and  C2_2
REMARK    2  A    between atoms: C2_2  and  O1_10
REMARK    3  A    between atoms: C3_3  and  C4_4
REMARK    4  A    between atoms: C4_4  and  S1_5
REMARK    5  A    between atoms: S1_5  and  S2_6
REMARK    6  A    between atoms: S2_6  and  C5_7
REMARK    7  A    between atoms: C5_7  and  C6_8
REMARK                            x       y       z     vdW  Elec       q    Type
REMARK                         _______ _______ _______ _____ _____    ______ ____
ROOT
ATOM      1  C4  UNL     1     -14.114  75.104 103.667  0.00  0.00    +0.000 C 
ENDROOT
BRANCH   1   4
ATOM      2  C1  UNL     1     -15.280  73.051 100.604  0.00  0.00    +0.000 C 
ATOM      3  C2  UNL     1     -14.471  73.956 101.485  0.00  0.00    +0.000 C 
ATOM      4  C3  UNL     1     -14.883  74.217 102.731  0.00  0.00    +0.000 C 
BRANCH   3   5
ATOM      5  O1  UNL     1     -13.283  74.510 101.008  0.00  0.00    +0.000 OA
ATOM      6  H12 UNL     1     -13.023  75.467 101.215  0.00  0.00    +0.000 HD
ENDBRANCH   3   5
ENDBRANCH   1   4
BRANCH   1   7
ATOM      7  S1  UNL     1     -14.908  76.741 103.817  0.00  0.00    +0.000 S 
BRANCH   7   8
ATOM      8  S2  UNL     1     -13.282  77.799 102.916  0.00  0.00    +0.000 S 
BRANCH   8   9
ATOM      9  C5  UNL     1     -12.885  78.752 104.418  0.00  0.00    +0.000 C 
BRANCH   9  10
ATOM     10  C6  UNL     1     -11.756  78.097 105.160  0.00  0.00    +0.000 C 
ATOM     11  C7  UNL     1     -11.065  77.078 104.640  0.00  0.00    +0.000 C 
ENDBRANCH   9  10
ENDBRANCH   8   9
ENDBRANCH   7   8
ENDBRANCH   1   7
TORSDOF 6
ENDMDL
MODEL 3
REMARK VINA RESULT:      -3.5      2.010      2.495
REMARK  Name = .\Allicin.pdb
REMARK  7 active torsions:
REMARK  status: ('A' for Active; 'I' for Inactive)
REMARK    1  A    between atoms: C1_1  and  C2_2
REMARK    2  A    between atoms: C2_2  and  O1_10
REMARK    3  A    between atoms: C3_3  and  C4_4
REMARK    4  A    between atoms: C4_4  and  S1_5
REMARK    5  A    between atoms: S1_5  and  S2_6
REMARK    6  A    between atoms: S2_6  and  C5_7
REMARK    7  A    between atoms: C5_7  and  C6_8
REMARK                            x       y       z     vdW  Elec       q    Type
REMARK                         _______ _______ _______ _____ _____    ______ ____
ROOT
ATOM      1  C4  UNL     1     -12.318  77.020 103.150  0.00  0.00    +0.000 C 
ENDROOT
BRANCH   1   4
ATOM      2  C1  UNL     1     -14.528  74.010 102.146  0.00  0.00    +0.000 C 
ATOM      3  C2  UNL     1     -13.577  75.166 102.061  0.00  0.00    +0.000 C 
ATOM      4  C3  UNL     1     -13.271  75.860 103.164  0.00  0.00    +0.000 C 
BRANCH   3   5
ATOM      5  O1  UNL     1     -13.002  75.506 100.836  0.00  0.00    +0.000 OA
ATOM      6  H12 UNL     1     -12.464  74.836 100.299  0.00  0.00    +0.000 HD
ENDBRANCH   3   5
ENDBRANCH   1   4
BRANCH   1   7
ATOM      7  S1  UNL     1     -11.996  77.623 104.843  0.00  0.00    +0.000 S 
BRANCH   7   8
ATOM      8  S2  UNL     1     -14.066  77.805 105.351  0.00  0.00    +0.000 S 
BRANCH   8   9
ATOM      9  C5  UNL     1     -13.830  79.294 106.374  0.00  0.00    +0.000 C 
BRANCH   9  10
ATOM     10  C6  UNL     1     -12.388  79.712 106.349  0.00  0.00    +0.000 C 
ATOM     11  C7  UNL     1     -11.887  80.579 107.235  0.00  0.00    +0.000 C 
ENDBRANCH   9  10
ENDBRANCH   8   9
ENDBRANCH   7   8
ENDBRANCH   1   7
TORSDOF 6
ENDMDL
MODEL 4
REMARK VINA RESULT:      -3.5      3.459      4.643
REMARK  Name = .\Allicin.pdb
REMARK  7 active torsions:
REMARK  status: ('A' for Active; 'I' for Inactive)
REMARK    1  A    between atoms: C1_1  and  C2_2
REMARK    2  A    between atoms: C2_2  and  O1_10
REMARK    3  A    between atoms: C3_3  and  C4_4
REMARK    4  A    between atoms: C4_4  and  S1_5
REMARK    5  A    between atoms: S1_5  and  S2_6
REMARK    6  A    between atoms: S2_6  and  C5_7
REMARK    7  A    between atoms: C5_7  and  C6_8
REMARK                            x       y       z     vdW  Elec       q    Type
REMARK                         _______ _______ _______ _____ _____    ______ ____
ROOT
ATOM      1  C4  UNL     1     -13.860  75.368 103.303  0.00  0.00    +0.000 C 
ENDROOT
BRANCH   1   4
ATOM      2  C1  UNL     1     -15.460  73.017 100.682  0.00  0.00    +0.000 C 
ATOM      3  C2  UNL     1     -14.442  73.802 101.454  0.00  0.00    +0.000 C 
ATOM      4  C3  UNL     1     -14.830  74.568 102.482  0.00  0.00    +0.000 C 
BRANCH   3   5
ATOM      5  O1  UNL     1     -13.093  73.720 101.110  0.00  0.00    +0.000 OA
ATOM      6  H12 UNL     1     -12.399  73.372 101.761  0.00  0.00    +0.000 HD
ENDBRANCH   3   5
ENDBRANCH   1   4
BRANCH   1   7
ATOM      7  S1  UNL     1     -14.389  75.445 105.048  0.00  0.00    +0.000 S 
BRANCH   7   8
ATOM      8  S2  UNL     1     -16.014  74.078 104.790  0.00  0.00    +0.000 S 
BRANCH   8   9
ATOM      9  C5  UNL     1     -15.195  72.717 105.683  0.00  0.00    +0.000 C 
BRANCH   9  10
ATOM     10  C6  UNL     1     -14.634  73.217 106.982  0.00  0.00    +0.000 C 
ATOM     11  C7  UNL     1     -13.892  72.441 107.778  0.00  0.00    +0.000 C 
ENDBRANCH   9  10
ENDBRANCH   8   9
ENDBRANCH   7   8
ENDBRANCH   1   7
TORSDOF 6
ENDMDL
MODEL 5
REMARK VINA RESULT:      -3.4      2.408      4.081
REMARK  Name = .\Allicin.pdb
REMARK  7 active torsions:
REMARK  status: ('A' for Active; 'I' for Inactive)
REMARK    1  A    between atoms: C1_1  and  C2_2
REMARK    2  A    between atoms: C2_2  and  O1_10
REMARK    3  A    between atoms: C3_3  and  C4_4
REMARK    4  A    between atoms: C4_4  and  S1_5
REMARK    5  A    between atoms: S1_5  and  S2_6
REMARK    6  A    between atoms: S2_6  and  C5_7
REMARK    7  A    between atoms: C5_7  and  C6_8
REMARK                            x       y       z     vdW  Elec       q    Type
REMARK                         _______ _______ _______ _____ _____    ______ ____
ROOT
ATOM      1  C4  UNL     1     -14.363  77.955 104.122  0.00  0.00    +0.000 C 
ENDROOT
BRANCH   1   4
ATOM      2  C1  UNL     1     -10.681  76.832 104.488  0.00  0.00    +0.000 C 
ATOM      3  C2  UNL     1     -11.915  77.516 103.979  0.00  0.00    +0.000 C 
ATOM      4  C3  UNL     1     -13.093  77.294 104.574  0.00  0.00    +0.000 C 
BRANCH   3   5
ATOM      5  O1  UNL     1     -11.829  78.393 102.898  0.00  0.00    +0.000 OA
ATOM      6  H12 UNL     1     -12.553  78.436 102.191  0.00  0.00    +0.000 HD
ENDBRANCH   3   5
ENDBRANCH   1   4
BRANCH   1   7
ATOM      7  S1  UNL     1     -15.563  76.721 103.514  0.00  0.00    +0.000 S 
BRANCH   7   8
ATOM      8  S2  UNL     1     -14.956  75.205 104.896  0.00  0.00    +0.000 S 
BRANCH   8   9
ATOM      9  C5  UNL     1     -14.730  73.929 103.614  0.00  0.00    +0.000 C 
BRANCH   9  10
ATOM     10  C6  UNL     1     -14.384  74.572 102.303  0.00  0.00    +0.000 C 
ATOM     11  C7  UNL     1     -13.201  74.380 101.711  0.00  0.00    +0.000 C 
ENDBRANCH   9  10
ENDBRANCH   8   9
ENDBRANCH   7   8
ENDBRANCH   1   7
TORSDOF 6
ENDMDL
MODEL 6
REMARK VINA RESULT:      -3.4      2.878      3.930
REMARK  Name = .\Allicin.pdb
REMARK  7 active torsions:
REMARK  status: ('A' for Active; 'I' for Inactive)
REMARK    1  A    between atoms: C1_1  and  C2_2
REMARK    2  A    between atoms: C2_2  and  O1_10
REMARK    3  A    between atoms: C3_3  and  C4_4
REMARK    4  A    between atoms: C4_4  and  S1_5
REMARK    5  A    between atoms: S1_5  and  S2_6
REMARK    6  A    between atoms: S2_6  and  C5_7
REMARK    7  A    between atoms: C5_7  and  C6_8
REMARK                            x       y       z     vdW  Elec       q    Type
REMARK                         _______ _______ _______ _____ _____    ______ ____
ROOT
ATOM      1  C4  UNL     1     -16.300  76.348 101.402  0.00  0.00    +0.000 C 
ENDROOT
BRANCH   1   4
ATOM      2  C1  UNL     1     -13.435  78.892 101.931  0.00  0.00    +0.000 C 
ATOM      3  C2  UNL     1     -14.176  77.640 101.563  0.00  0.00    +0.000 C 
ATOM      4  C3  UNL     1     -15.498  77.566 101.760  0.00  0.00    +0.000 C 
BRANCH   3   5
ATOM      5  O1  UNL     1     -13.488  76.564 101.003  0.00  0.00    +0.000 OA
ATOM      6  H12 UNL     1     -13.354  76.483 100.002  0.00  0.00    +0.000 HD
ENDBRANCH   3   5
ENDBRANCH   1   4
BRANCH   1   7
ATOM      7  S1  UNL     1     -16.981  75.552 102.897  0.00  0.00    +0.000 S 
BRANCH   7   8
ATOM      8  S2  UNL     1     -16.052  73.663 102.517  0.00  0.00    +0.000 S 
BRANCH   8   9
ATOM      9  C5  UNL     1     -14.462  74.134 103.272  0.00  0.00    +0.000 C 
BRANCH   9  10
ATOM     10  C6  UNL     1     -14.699  75.018 104.462  0.00  0.00    +0.000 C 
ATOM     11  C7  UNL     1     -13.756  75.842 104.930  0.00  0.00    +0.000 C 
ENDBRANCH   9  10
ENDBRANCH   8   9
ENDBRANCH   7   8
ENDBRANCH   1   7
TORSDOF 6
ENDMDL
MODEL 7
REMARK VINA RESULT:      -3.4      3.894      5.130
REMARK  Name = .\Allicin.pdb
REMARK  7 active torsions:
REMARK  status: ('A' for Active; 'I' for Inactive)
REMARK    1  A    between atoms: C1_1  and  C2_2
REMARK    2  A    between atoms: C2_2  and  O1_10
REMARK    3  A    between atoms: C3_3  and  C4_4
REMARK    4  A    between atoms: C4_4  and  S1_5
REMARK    5  A    between atoms: S1_5  and  S2_6
REMARK    6  A    between atoms: S2_6  and  C5_7
REMARK    7  A    between atoms: C5_7  and  C6_8
REMARK                            x       y       z     vdW  Elec       q    Type
REMARK                         _______ _______ _______ _____ _____    ______ ____
ROOT
ATOM      1  C4  UNL     1     -15.288  74.962 105.415  0.00  0.00    +0.000 C 
ENDROOT
BRANCH   1   4
ATOM      2  C1  UNL     1     -14.844  71.860 107.682  0.00  0.00    +0.000 C 
ATOM      3  C2  UNL     1     -15.245  73.222 107.198  0.00  0.00    +0.000 C 
ATOM      4  C3  UNL     1     -14.908  73.617 105.964  0.00  0.00    +0.000 C 
BRANCH   3   5
ATOM      5  O1  UNL     1     -15.981  74.067 108.029  0.00  0.00    +0.000 OA
ATOM      6  H12 UNL     1     -15.680  75.015 108.222  0.00  0.00    +0.000 HD
ENDBRANCH   3   5
ENDBRANCH   1   4
BRANCH   1   7
ATOM      7  S1  UNL     1     -13.812  75.884 104.865  0.00  0.00    +0.000 S 
BRANCH   7   8
ATOM      8  S2  UNL     1     -14.908  77.202 103.585  0.00  0.00    +0.000 S 
BRANCH   8   9
ATOM      9  C5  UNL     1     -14.148  76.574 102.053  0.00  0.00    +0.000 C 
BRANCH   9  10
ATOM     10  C6  UNL     1     -13.302  75.370 102.353  0.00  0.00    +0.000 C 
ATOM     11  C7  UNL     1     -13.307  74.289 101.568  0.00  0.00    +0.000 C 
ENDBRANCH   9  10
ENDBRANCH   8   9
ENDBRANCH   7   8
ENDBRANCH   1   7
TORSDOF 6
ENDMDL
MODEL 8
REMARK VINA RESULT:      -3.3      4.304      5.187
REMARK  Name = .\Allicin.pdb
REMARK  7 active torsions:
REMARK  status: ('A' for Active; 'I' for Inactive)
REMARK    1  A    between atoms: C1_1  and  C2_2
REMARK    2  A    between atoms: C2_2  and  O1_10
REMARK    3  A    between atoms: C3_3  and  C4_4
REMARK    4  A    between atoms: C4_4  and  S1_5
REMARK    5  A    between atoms: S1_5  and  S2_6
REMARK    6  A    between atoms: S2_6  and  C5_7
REMARK    7  A    between atoms: C5_7  and  C6_8
REMARK                            x       y       z     vdW  Elec       q    Type
REMARK                         _______ _______ _______ _____ _____    ______ ____
ROOT
ATOM      1  C4  UNL     1     -15.889  73.227 105.087  0.00  0.00    +0.000 C 
ENDROOT
BRANCH   1   4
ATOM      2  C1  UNL     1     -13.979  72.483 108.367  0.00  0.00    +0.000 C 
ATOM      3  C2  UNL     1     -14.968  73.058 107.396  0.00  0.00    +0.000 C 
ATOM      4  C3  UNL     1     -14.922  72.698 106.107  0.00  0.00    +0.000 C 
BRANCH   3   5
ATOM      5  O1  UNL     1     -15.941  73.952 107.841  0.00  0.00    +0.000 OA
ATOM      6  H12 UNL     1     -16.162  74.049 108.825  0.00  0.00    +0.000 HD
ENDBRANCH   3   5
ENDBRANCH   1   4
BRANCH   1   7
ATOM      7  S1  UNL     1     -15.008  74.036 103.708  0.00  0.00    +0.000 S 
BRANCH   7   8
ATOM      8  S2  UNL     1     -15.092  75.987 104.580  0.00  0.00    +0.000 S 
BRANCH   8   9
ATOM      9  C5  UNL     1     -13.372  75.948 105.180  0.00  0.00    +0.000 C 
BRANCH   9  10
ATOM     10  C6  UNL     1     -12.589  77.077 104.575  0.00  0.00    +0.000 C 
ATOM     11  C7  UNL     1     -11.254  77.116 104.620  0.00  0.00    +0.000 C 
ENDBRANCH   9  10
ENDBRANCH   8   9
ENDBRANCH   7   8
ENDBRANCH   1   7
TORSDOF 6
ENDMDL
MODEL 9
REMARK VINA RESULT:      -3.3      3.082      5.330
REMARK  Name = .\Allicin.pdb
REMARK  7 active torsions:
REMARK  status: ('A' for Active; 'I' for Inactive)
REMARK    1  A    between atoms: C1_1  and  C2_2
REMARK    2  A    between atoms: C2_2  and  O1_10
REMARK    3  A    between atoms: C3_3  and  C4_4
REMARK    4  A    between atoms: C4_4  and  S1_5
REMARK    5  A    between atoms: S1_5  and  S2_6
REMARK    6  A    between atoms: S2_6  and  C5_7
REMARK    7  A    between atoms: C5_7  and  C6_8
REMARK                            x       y       z     vdW  Elec       q    Type
REMARK                         _______ _______ _______ _____ _____    ______ ____
ROOT
ATOM      1  C4  UNL     1     -12.131  78.501 104.363  0.00  0.00    +0.000 C 
ENDROOT
BRANCH   1   4
ATOM      2  C1  UNL     1     -11.213  80.991 107.176  0.00  0.00    +0.000 C 
ATOM      3  C2  UNL     1     -11.134  79.850 106.205  0.00  0.00    +0.000 C 
ATOM      4  C3  UNL     1     -12.151  79.618 105.366  0.00  0.00    +0.000 C 
BRANCH   3   5
ATOM      5  O1  UNL     1      -9.996  79.044 106.169  0.00  0.00    +0.000 OA
ATOM      6  H12 UNL     1     -10.030  78.094 105.818  0.00  0.00    +0.000 HD
ENDBRANCH   3   5
ENDBRANCH   1   4
BRANCH   1   7
ATOM      7  S1  UNL     1     -12.976  77.020 105.016  0.00  0.00    +0.000 S 
BRANCH   7   8
ATOM      8  S2  UNL     1     -14.062  76.640 103.212  0.00  0.00    +0.000 S 
BRANCH   8   9
ATOM      9  C5  UNL     1     -14.553  74.954 103.697  0.00  0.00    +0.000 C 
BRANCH   9  10
ATOM     10  C6  UNL     1     -14.191  73.980 102.612  0.00  0.00    +0.000 C 
ATOM     11  C7  UNL     1     -13.322  74.290 101.646  0.00  0.00    +0.000 C 
ENDBRANCH   9  10
ENDBRANCH   8   9
ENDBRANCH   7   8
ENDBRANCH   1   7
TORSDOF 6
ENDMDL
