MODEL 1
REMARK VINA RESULT:      -3.3      0.000      0.000
REMARK  Name = .\Allicin.pdb
REMARK  7 active torsions:
REMARK  status: ('A' for Active; 'I' for Inactive)
REMARK    1  A    between atoms: C1_1  and  C2_2
REMARK    2  A    between atoms: C2_2  and  O1_10
REMARK    3  A    between atoms: C3_3  and  C4_4
REMARK    4  A    between atoms: C4_4  and  S1_5
REMARK    5  A    between atoms: S1_5  and  S2_6
REMARK    6  A    between atoms: S2_6  and  C5_7
REMARK    7  A    between atoms: C5_7  and  C6_8
REMARK                            x       y       z     vdW  Elec       q    Type
REMARK                         _______ _______ _______ _____ _____    ______ ____
ROOT
ATOM      1  C4  UNL     1       4.679  55.725 -33.112  0.00  0.00    +0.000 C 
ENDROOT
BRANCH   1   4
ATOM      2  C1  UNL     1       3.321  53.284 -35.786  0.00  0.00    +0.000 C 
ATOM      3  C2  UNL     1       3.934  54.493 -35.146  0.00  0.00    +0.000 C 
ATOM      4  C3  UNL     1       4.063  54.550 -33.814  0.00  0.00    +0.000 C 
BRANCH   3   5
ATOM      5  O1  UNL     1       4.383  55.549 -35.940  0.00  0.00    +0.000 OA
ATOM      6  H12 UNL     1       3.788  56.340 -36.156  0.00  0.00    +0.000 HD
ENDBRANCH   3   5
ENDBRANCH   1   4
BRANCH   1   7
ATOM      7  S1  UNL     1       5.413  55.224 -31.518  0.00  0.00    +0.000 S 
BRANCH   7   8
ATOM      8  S2  UNL     1       6.427  53.523 -32.330  0.00  0.00    +0.000 S 
BRANCH   8   9
ATOM      9  C5  UNL     1       5.616  52.331 -31.215  0.00  0.00    +0.000 C 
BRANCH   9  10
ATOM     10  C6  UNL     1       4.811  51.346 -32.013  0.00  0.00    +0.000 C 
ATOM     11  C7  UNL     1       4.760  50.050 -31.691  0.00  0.00    +0.000 C 
ENDBRANCH   9  10
ENDBRANCH   8   9
ENDBRANCH   7   8
ENDBRANCH   1   7
TORSDOF 6
ENDMDL
MODEL 2
REMARK VINA RESULT:      -3.2      1.953      2.372
REMARK  Name = .\Allicin.pdb
REMARK  7 active torsions:
REMARK  status: ('A' for Active; 'I' for Inactive)
REMARK    1  A    between atoms: C1_1  and  C2_2
REMARK    2  A    between atoms: C2_2  and  O1_10
REMARK    3  A    between atoms: C3_3  and  C4_4
REMARK    4  A    between atoms: C4_4  and  S1_5
REMARK    5  A    between atoms: S1_5  and  S2_6
REMARK    6  A    between atoms: S2_6  and  C5_7
REMARK    7  A    between atoms: C5_7  and  C6_8
REMARK                            x       y       z     vdW  Elec       q    Type
REMARK                         _______ _______ _______ _____ _____    ______ ____
ROOT
ATOM      1  C4  UNL     1       4.824  56.022 -32.970  0.00  0.00    +0.000 C 
ENDROOT
BRANCH   1   4
ATOM      2  C1  UNL     1       7.142  55.524 -36.025  0.00  0.00    +0.000 C 
ATOM      3  C2  UNL     1       5.908  55.690 -35.189  0.00  0.00    +0.000 C 
ATOM      4  C3  UNL     1       6.017  55.839 -33.862  0.00  0.00    +0.000 C 
BRANCH   3   5
ATOM      5  O1  UNL     1       4.653  55.705 -35.796  0.00  0.00    +0.000 OA
ATOM      6  H12 UNL     1       3.853  55.251 -35.371  0.00  0.00    +0.000 HD
ENDBRANCH   3   5
ENDBRANCH   1   4
BRANCH   1   7
ATOM      7  S1  UNL     1       4.554  54.546 -31.930  0.00  0.00    +0.000 S 
BRANCH   7   8
ATOM      8  S2  UNL     1       2.900  53.831 -33.082  0.00  0.00    +0.000 S 
BRANCH   8   9
ATOM      9  C5  UNL     1       3.794  52.379 -33.726  0.00  0.00    +0.000 C 
BRANCH   9  10
ATOM     10  C6  UNL     1       4.783  51.891 -32.707  0.00  0.00    +0.000 C 
ATOM     11  C7  UNL     1       4.611  50.740 -32.050  0.00  0.00    +0.000 C 
ENDBRANCH   9  10
ENDBRANCH   8   9
ENDBRANCH   7   8
ENDBRANCH   1   7
TORSDOF 6
ENDMDL
MODEL 3
REMARK VINA RESULT:      -3.2      2.456      3.887
REMARK  Name = .\Allicin.pdb
REMARK  7 active torsions:
REMARK  status: ('A' for Active; 'I' for Inactive)
REMARK    1  A    between atoms: C1_1  and  C2_2
REMARK    2  A    between atoms: C2_2  and  O1_10
REMARK    3  A    between atoms: C3_3  and  C4_4
REMARK    4  A    between atoms: C4_4  and  S1_5
REMARK    5  A    between atoms: S1_5  and  S2_6
REMARK    6  A    between atoms: S2_6  and  C5_7
REMARK    7  A    between atoms: C5_7  and  C6_8
REMARK                            x       y       z     vdW  Elec       q    Type
REMARK                         _______ _______ _______ _____ _____    ______ ____
ROOT
ATOM      1  C4  UNL     1       3.919  52.704 -34.658  0.00  0.00    +0.000 C 
ENDROOT
BRANCH   1   4
ATOM      2  C1  UNL     1       4.774  50.395 -31.676  0.00  0.00    +0.000 C 
ATOM      3  C2  UNL     1       4.844  51.086 -33.006  0.00  0.00    +0.000 C 
ATOM      4  C3  UNL     1       3.900  51.971 -33.348  0.00  0.00    +0.000 C 
BRANCH   3   5
ATOM      5  O1  UNL     1       5.901  50.816 -33.874  0.00  0.00    +0.000 OA
ATOM      6  H12 UNL     1       5.785  50.857 -34.880  0.00  0.00    +0.000 HD
ENDBRANCH   3   5
ENDBRANCH   1   4
BRANCH   1   7
ATOM      7  S1  UNL     1       4.265  54.479 -34.408  0.00  0.00    +0.000 S 
BRANCH   7   8
ATOM      8  S2  UNL     1       3.488  54.522 -32.416  0.00  0.00    +0.000 S 
BRANCH   8   9
ATOM      9  C5  UNL     1       4.972  55.302 -31.703  0.00  0.00    +0.000 C 
BRANCH   9  10
ATOM     10  C6  UNL     1       5.855  54.258 -31.082  0.00  0.00    +0.000 C 
ATOM     11  C7  UNL     1       6.959  53.813 -31.689  0.00  0.00    +0.000 C 
ENDBRANCH   9  10
ENDBRANCH   8   9
ENDBRANCH   7   8
ENDBRANCH   1   7
TORSDOF 6
ENDMDL
MODEL 4
REMARK VINA RESULT:      -3.2      2.250      3.088
REMARK  Name = .\Allicin.pdb
REMARK  7 active torsions:
REMARK  status: ('A' for Active; 'I' for Inactive)
REMARK    1  A    between atoms: C1_1  and  C2_2
REMARK    2  A    between atoms: C2_2  and  O1_10
REMARK    3  A    between atoms: C3_3  and  C4_4
REMARK    4  A    between atoms: C4_4  and  S1_5
REMARK    5  A    between atoms: S1_5  and  S2_6
REMARK    6  A    between atoms: S2_6  and  C5_7
REMARK    7  A    between atoms: C5_7  and  C6_8
REMARK                            x       y       z     vdW  Elec       q    Type
REMARK                         _______ _______ _______ _____ _____    ______ ____
ROOT
ATOM      1  C4  UNL     1       3.265  53.937 -33.824  0.00  0.00    +0.000 C 
ENDROOT
BRANCH   1   4
ATOM      2  C1  UNL     1       5.903  56.671 -33.102  0.00  0.00    +0.000 C 
ATOM      3  C2  UNL     1       4.689  55.799 -32.979  0.00  0.00    +0.000 C 
ATOM      4  C3  UNL     1       4.454  54.851 -33.896  0.00  0.00    +0.000 C 
BRANCH   3   5
ATOM      5  O1  UNL     1       3.817  55.966 -31.903  0.00  0.00    +0.000 OA
ATOM      6  H12 UNL     1       4.129  55.855 -30.946  0.00  0.00    +0.000 HD
ENDBRANCH   3   5
ENDBRANCH   1   4
BRANCH   1   7
ATOM      7  S1  UNL     1       3.753  52.272 -33.258  0.00  0.00    +0.000 S 
BRANCH   7   8
ATOM      8  S2  UNL     1       5.795  52.484 -33.860  0.00  0.00    +0.000 S 
BRANCH   8   9
ATOM      9  C5  UNL     1       6.470  51.994 -32.240  0.00  0.00    +0.000 C 
BRANCH   9  10
ATOM     10  C6  UNL     1       5.702  52.664 -31.137  0.00  0.00    +0.000 C 
ATOM     11  C7  UNL     1       6.229  53.651 -30.407  0.00  0.00    +0.000 C 
ENDBRANCH   9  10
ENDBRANCH   8   9
ENDBRANCH   7   8
ENDBRANCH   1   7
TORSDOF 6
ENDMDL
MODEL 5
REMARK VINA RESULT:      -3.2      1.534      2.066
REMARK  Name = .\Allicin.pdb
REMARK  7 active torsions:
REMARK  status: ('A' for Active; 'I' for Inactive)
REMARK    1  A    between atoms: C1_1  and  C2_2
REMARK    2  A    between atoms: C2_2  and  O1_10
REMARK    3  A    between atoms: C3_3  and  C4_4
REMARK    4  A    between atoms: C4_4  and  S1_5
REMARK    5  A    between atoms: S1_5  and  S2_6
REMARK    6  A    between atoms: S2_6  and  C5_7
REMARK    7  A    between atoms: C5_7  and  C6_8
REMARK                            x       y       z     vdW  Elec       q    Type
REMARK                         _______ _______ _______ _____ _____    ______ ____
ROOT
ATOM      1  C4  UNL     1       3.207  53.882 -33.428  0.00  0.00    +0.000 C 
ENDROOT
BRANCH   1   4
ATOM      2  C1  UNL     1       5.686  56.012 -35.497  0.00  0.00    +0.000 C 
ATOM      3  C2  UNL     1       4.578  55.065 -35.139  0.00  0.00    +0.000 C 
ATOM      4  C3  UNL     1       4.309  54.810 -33.853  0.00  0.00    +0.000 C 
BRANCH   3   5
ATOM      5  O1  UNL     1       3.822  54.466 -36.147  0.00  0.00    +0.000 OA
ATOM      6  H12 UNL     1       3.225  55.012 -36.757  0.00  0.00    +0.000 HD
ENDBRANCH   3   5
ENDBRANCH   1   4
BRANCH   1   7
ATOM      7  S1  UNL     1       3.809  52.163 -33.310  0.00  0.00    +0.000 S 
BRANCH   7   8
ATOM      8  S2  UNL     1       5.527  52.668 -32.140  0.00  0.00    +0.000 S 
BRANCH   8   9
ATOM      9  C5  UNL     1       5.297  51.303 -30.955  0.00  0.00    +0.000 C 
BRANCH   9  10
ATOM     10  C6  UNL     1       4.823  50.072 -31.674  0.00  0.00    +0.000 C 
ATOM     11  C7  UNL     1       5.560  48.959 -31.732  0.00  0.00    +0.000 C 
ENDBRANCH   9  10
ENDBRANCH   8   9
ENDBRANCH   7   8
ENDBRANCH   1   7
TORSDOF 6
ENDMDL
MODEL 6
REMARK VINA RESULT:      -3.2      2.478      4.393
REMARK  Name = .\Allicin.pdb
REMARK  7 active torsions:
REMARK  status: ('A' for Active; 'I' for Inactive)
REMARK    1  A    between atoms: C1_1  and  C2_2
REMARK    2  A    between atoms: C2_2  and  O1_10
REMARK    3  A    between atoms: C3_3  and  C4_4
REMARK    4  A    between atoms: C4_4  and  S1_5
REMARK    5  A    between atoms: S1_5  and  S2_6
REMARK    6  A    between atoms: S2_6  and  C5_7
REMARK    7  A    between atoms: C5_7  and  C6_8
REMARK                            x       y       z     vdW  Elec       q    Type
REMARK                         _______ _______ _______ _____ _____    ______ ____
ROOT
ATOM      1  C4  UNL     1       4.225  53.054 -32.108  0.00  0.00    +0.000 C 
ENDROOT
BRANCH   1   4
ATOM      2  C1  UNL     1       6.349  56.220 -31.454  0.00  0.00    +0.000 C 
ATOM      3  C2  UNL     1       5.172  55.322 -31.698  0.00  0.00    +0.000 C 
ATOM      4  C3  UNL     1       5.360  54.008 -31.871  0.00  0.00    +0.000 C 
BRANCH   3   5
ATOM      5  O1  UNL     1       3.884  55.857 -31.730  0.00  0.00    +0.000 OA
ATOM      6  H12 UNL     1       3.626  56.580 -32.390  0.00  0.00    +0.000 HD
ENDBRANCH   3   5
ENDBRANCH   1   4
BRANCH   1   7
ATOM      7  S1  UNL     1       4.776  51.610 -33.078  0.00  0.00    +0.000 S 
BRANCH   7   8
ATOM      8  S2  UNL     1       5.821  52.777 -34.535  0.00  0.00    +0.000 S 
BRANCH   8   9
ATOM      9  C5  UNL     1       4.306  53.355 -35.365  0.00  0.00    +0.000 C 
BRANCH   9  10
ATOM     10  C6  UNL     1       4.245  54.855 -35.341  0.00  0.00    +0.000 C 
ATOM     11  C7  UNL     1       5.349  55.608 -35.367  0.00  0.00    +0.000 C 
ENDBRANCH   9  10
ENDBRANCH   8   9
ENDBRANCH   7   8
ENDBRANCH   1   7
TORSDOF 6
ENDMDL
MODEL 7
REMARK VINA RESULT:      -3.1      2.316      4.251
REMARK  Name = .\Allicin.pdb
REMARK  7 active torsions:
REMARK  status: ('A' for Active; 'I' for Inactive)
REMARK    1  A    between atoms: C1_1  and  C2_2
REMARK    2  A    between atoms: C2_2  and  O1_10
REMARK    3  A    between atoms: C3_3  and  C4_4
REMARK    4  A    between atoms: C4_4  and  S1_5
REMARK    5  A    between atoms: S1_5  and  S2_6
REMARK    6  A    between atoms: S2_6  and  C5_7
REMARK    7  A    between atoms: C5_7  and  C6_8
REMARK                            x       y       z     vdW  Elec       q    Type
REMARK                         _______ _______ _______ _____ _____    ______ ____
ROOT
ATOM      1  C4  UNL     1       6.059  52.474 -34.484  0.00  0.00    +0.000 C 
ENDROOT
BRANCH   1   4
ATOM      2  C1  UNL     1       4.722  50.303 -31.577  0.00  0.00    +0.000 C 
ATOM      3  C2  UNL     1       4.767  51.225 -32.759  0.00  0.00    +0.000 C 
ATOM      4  C3  UNL     1       5.946  51.566 -33.294  0.00  0.00    +0.000 C 
BRANCH   3   5
ATOM      5  O1  UNL     1       3.580  51.712 -33.308  0.00  0.00    +0.000 OA
ATOM      6  H12 UNL     1       3.208  52.618 -33.048  0.00  0.00    +0.000 HD
ENDBRANCH   3   5
ENDBRANCH   1   4
BRANCH   1   7
ATOM      7  S1  UNL     1       7.155  53.889 -34.124  0.00  0.00    +0.000 S 
BRANCH   7   8
ATOM      8  S2  UNL     1       6.029  55.275 -35.303  0.00  0.00    +0.000 S 
BRANCH   8   9
ATOM      9  C5  UNL     1       4.481  55.022 -34.377  0.00  0.00    +0.000 C 
BRANCH   9  10
ATOM     10  C6  UNL     1       4.604  55.607 -32.999  0.00  0.00    +0.000 C 
ATOM     11  C7  UNL     1       4.202  54.943 -31.911  0.00  0.00    +0.000 C 
ENDBRANCH   9  10
ENDBRANCH   8   9
ENDBRANCH   7   8
ENDBRANCH   1   7
TORSDOF 6
ENDMDL
MODEL 8
REMARK VINA RESULT:      -3.1      2.487      4.201
REMARK  Name = .\Allicin.pdb
REMARK  7 active torsions:
REMARK  status: ('A' for Active; 'I' for Inactive)
REMARK    1  A    between atoms: C1_1  and  C2_2
REMARK    2  A    between atoms: C2_2  and  O1_10
REMARK    3  A    between atoms: C3_3  and  C4_4
REMARK    4  A    between atoms: C4_4  and  S1_5
REMARK    5  A    between atoms: S1_5  and  S2_6
REMARK    6  A    between atoms: S2_6  and  C5_7
REMARK    7  A    between atoms: C5_7  and  C6_8
REMARK                            x       y       z     vdW  Elec       q    Type
REMARK                         _______ _______ _______ _____ _____    ______ ____
ROOT
ATOM      1  C4  UNL     1       5.015  53.622 -31.500  0.00  0.00    +0.000 C 
ENDROOT
BRANCH   1   4
ATOM      2  C1  UNL     1       6.312  50.554 -33.465  0.00  0.00    +0.000 C 
ATOM      3  C2  UNL     1       5.453  51.432 -32.604  0.00  0.00    +0.000 C 
ATOM      4  C3  UNL     1       5.834  52.689 -32.343  0.00  0.00    +0.000 C 
BRANCH   3   5
ATOM      5  O1  UNL     1       4.252  50.942 -32.090  0.00  0.00    +0.000 OA
ATOM      6  H12 UNL     1       4.174  49.996 -31.734  0.00  0.00    +0.000 HD
ENDBRANCH   3   5
ENDBRANCH   1   4
BRANCH   1   7
ATOM      7  S1  UNL     1       3.699  54.412 -32.488  0.00  0.00    +0.000 S 
BRANCH   7   8
ATOM      8  S2  UNL     1       5.042  55.675 -33.573  0.00  0.00    +0.000 S 
BRANCH   8   9
ATOM      9  C5  UNL     1       4.625  54.961 -35.197  0.00  0.00    +0.000 C 
BRANCH   9  10
ATOM     10  C6  UNL     1       3.574  53.900 -35.039  0.00  0.00    +0.000 C 
ATOM     11  C7  UNL     1       3.188  53.129 -36.060  0.00  0.00    +0.000 C 
ENDBRANCH   9  10
ENDBRANCH   8   9
ENDBRANCH   7   8
ENDBRANCH   1   7
TORSDOF 6
ENDMDL
MODEL 9
REMARK VINA RESULT:      -3.1      2.369      3.564
REMARK  Name = .\Allicin.pdb
REMARK  7 active torsions:
REMARK  status: ('A' for Active; 'I' for Inactive)
REMARK    1  A    between atoms: C1_1  and  C2_2
REMARK    2  A    between atoms: C2_2  and  O1_10
REMARK    3  A    between atoms: C3_3  and  C4_4
REMARK    4  A    between atoms: C4_4  and  S1_5
REMARK    5  A    between atoms: S1_5  and  S2_6
REMARK    6  A    between atoms: S2_6  and  C5_7
REMARK    7  A    between atoms: C5_7  and  C6_8
REMARK                            x       y       z     vdW  Elec       q    Type
REMARK                         _______ _______ _______ _____ _____    ______ ____
ROOT
ATOM      1  C4  UNL     1       3.653  53.737 -32.524  0.00  0.00    +0.000 C 
ENDROOT
BRANCH   1   4
ATOM      2  C1  UNL     1       3.057  53.147 -36.300  0.00  0.00    +0.000 C 
ATOM      3  C2  UNL     1       3.576  52.993 -34.901  0.00  0.00    +0.000 C 
ATOM      4  C3  UNL     1       3.180  53.843 -33.945  0.00  0.00    +0.000 C 
BRANCH   3   5
ATOM      5  O1  UNL     1       4.457  51.956 -34.596  0.00  0.00    +0.000 OA
ATOM      6  H12 UNL     1       4.257  51.288 -33.860  0.00  0.00    +0.000 HD
ENDBRANCH   3   5
ENDBRANCH   1   4
BRANCH   1   7
ATOM      7  S1  UNL     1       4.391  55.308 -31.961  0.00  0.00    +0.000 S 
BRANCH   7   8
ATOM      8  S2  UNL     1       6.267  54.967 -32.931  0.00  0.00    +0.000 S 
BRANCH   8   9
ATOM      9  C5  UNL     1       6.013  56.261 -34.188  0.00  0.00    +0.000 C 
BRANCH   9  10
ATOM     10  C6  UNL     1       6.252  55.701 -35.561  0.00  0.00    +0.000 C 
ATOM     11  C7  UNL     1       6.878  54.535 -35.750  0.00  0.00    +0.000 C 
ENDBRANCH   9  10
ENDBRANCH   8   9
ENDBRANCH   7   8
ENDBRANCH   1   7
TORSDOF 6
ENDMDL
