MODEL 1
REMARK VINA RESULT:      -3.3      0.000      0.000
REMARK  Name = .\Allicin.pdb
REMARK  7 active torsions:
REMARK  status: ('A' for Active; 'I' for Inactive)
REMARK    1  A    between atoms: C1_1  and  C2_2
REMARK    2  A    between atoms: C2_2  and  O1_10
REMARK    3  A    between atoms: C3_3  and  C4_4
REMARK    4  A    between atoms: C4_4  and  S1_5
REMARK    5  A    between atoms: S1_5  and  S2_6
REMARK    6  A    between atoms: S2_6  and  C5_7
REMARK    7  A    between atoms: C5_7  and  C6_8
REMARK                            x       y       z     vdW  Elec       q    Type
REMARK                         _______ _______ _______ _____ _____    ______ ____
ROOT
ATOM      1  C4  UNL     1      -6.273  45.563 -33.791  0.00  0.00    +0.000 C 
ENDROOT
BRANCH   1   4
ATOM      2  C1  UNL     1      -3.611  42.801 -33.301  0.00  0.00    +0.000 C 
ATOM      3  C2  UNL     1      -4.292  44.052 -33.771  0.00  0.00    +0.000 C 
ATOM      4  C3  UNL     1      -5.540  44.323 -33.367  0.00  0.00    +0.000 C 
BRANCH   3   5
ATOM      5  O1  UNL     1      -3.619  44.936 -34.614  0.00  0.00    +0.000 OA
ATOM      6  H12 UNL     1      -3.285  45.834 -34.283  0.00  0.00    +0.000 HD
ENDBRANCH   3   5
ENDBRANCH   1   4
BRANCH   1   7
ATOM      7  S1  UNL     1      -8.016  45.508 -33.251  0.00  0.00    +0.000 S 
BRANCH   7   8
ATOM      8  S2  UNL     1      -8.783  46.303 -35.083  0.00  0.00    +0.000 S 
BRANCH   8   9
ATOM      9  C5  UNL     1     -10.450  45.606 -34.850  0.00  0.00    +0.000 C 
BRANCH   9  10
ATOM     10  C6  UNL     1     -10.906  45.821 -33.436  0.00  0.00    +0.000 C 
ATOM     11  C7  UNL     1     -12.143  46.236 -33.147  0.00  0.00    +0.000 C 
ENDBRANCH   9  10
ENDBRANCH   8   9
ENDBRANCH   7   8
ENDBRANCH   1   7
TORSDOF 6
ENDMDL
MODEL 2
REMARK VINA RESULT:      -3.2      2.236      5.801
REMARK  Name = .\Allicin.pdb
REMARK  7 active torsions:
REMARK  status: ('A' for Active; 'I' for Inactive)
REMARK    1  A    between atoms: C1_1  and  C2_2
REMARK    2  A    between atoms: C2_2  and  O1_10
REMARK    3  A    between atoms: C3_3  and  C4_4
REMARK    4  A    between atoms: C4_4  and  S1_5
REMARK    5  A    between atoms: S1_5  and  S2_6
REMARK    6  A    between atoms: S2_6  and  C5_7
REMARK    7  A    between atoms: C5_7  and  C6_8
REMARK                            x       y       z     vdW  Elec       q    Type
REMARK                         _______ _______ _______ _____ _____    ______ ____
ROOT
ATOM      1  C4  UNL     1      -9.245  44.578 -32.928  0.00  0.00    +0.000 C 
ENDROOT
BRANCH   1   4
ATOM      2  C1  UNL     1     -10.043  47.353 -35.501  0.00  0.00    +0.000 C 
ATOM      3  C2  UNL     1      -9.447  46.132 -34.865  0.00  0.00    +0.000 C 
ATOM      4  C3  UNL     1      -9.795  45.794 -33.617  0.00  0.00    +0.000 C 
BRANCH   3   5
ATOM      5  O1  UNL     1      -8.546  45.344 -35.581  0.00  0.00    +0.000 OA
ATOM      6  H12 UNL     1      -8.181  44.478 -35.202  0.00  0.00    +0.000 HD
ENDBRANCH   3   5
ENDBRANCH   1   4
BRANCH   1   7
ATOM      7  S1  UNL     1      -7.688  44.967 -32.059  0.00  0.00    +0.000 S 
BRANCH   7   8
ATOM      8  S2  UNL     1      -6.529  43.532 -33.143  0.00  0.00    +0.000 S 
BRANCH   8   9
ATOM      9  C5  UNL     1      -5.297  44.748 -33.712  0.00  0.00    +0.000 C 
BRANCH   9  10
ATOM     10  C6  UNL     1      -3.943  44.105 -33.803  0.00  0.00    +0.000 C 
ATOM     11  C7  UNL     1      -3.648  42.982 -33.142  0.00  0.00    +0.000 C 
ENDBRANCH   9  10
ENDBRANCH   8   9
ENDBRANCH   7   8
ENDBRANCH   1   7
TORSDOF 6
ENDMDL
MODEL 3
REMARK VINA RESULT:      -3.2      1.257      1.706
REMARK  Name = .\Allicin.pdb
REMARK  7 active torsions:
REMARK  status: ('A' for Active; 'I' for Inactive)
REMARK    1  A    between atoms: C1_1  and  C2_2
REMARK    2  A    between atoms: C2_2  and  O1_10
REMARK    3  A    between atoms: C3_3  and  C4_4
REMARK    4  A    between atoms: C4_4  and  S1_5
REMARK    5  A    between atoms: S1_5  and  S2_6
REMARK    6  A    between atoms: S2_6  and  C5_7
REMARK    7  A    between atoms: C5_7  and  C6_8
REMARK                            x       y       z     vdW  Elec       q    Type
REMARK                         _______ _______ _______ _____ _____    ______ ____
ROOT
ATOM      1  C4  UNL     1      -7.008  45.173 -33.505  0.00  0.00    +0.000 C 
ENDROOT
BRANCH   1   4
ATOM      2  C1  UNL     1      -3.722  43.139 -33.363  0.00  0.00    +0.000 C 
ATOM      3  C2  UNL     1      -4.717  44.212 -33.692  0.00  0.00    +0.000 C 
ATOM      4  C3  UNL     1      -5.969  44.128 -33.223  0.00  0.00    +0.000 C 
BRANCH   3   5
ATOM      5  O1  UNL     1      -4.332  45.302 -34.472  0.00  0.00    +0.000 OA
ATOM      6  H12 UNL     1      -4.157  45.209 -35.465  0.00  0.00    +0.000 HD
ENDBRANCH   3   5
ENDBRANCH   1   4
BRANCH   1   7
ATOM      7  S1  UNL     1      -8.130  45.381 -32.080  0.00  0.00    +0.000 S 
BRANCH   7   8
ATOM      8  S2  UNL     1      -9.733  44.277 -32.968  0.00  0.00    +0.000 S 
BRANCH   8   9
ATOM      9  C5  UNL     1     -10.637  45.760 -33.520  0.00  0.00    +0.000 C 
BRANCH   9  10
ATOM     10  C6  UNL     1     -10.374  46.011 -34.977  0.00  0.00    +0.000 C 
ATOM     11  C7  UNL     1      -9.725  47.099 -35.401  0.00  0.00    +0.000 C 
ENDBRANCH   9  10
ENDBRANCH   8   9
ENDBRANCH   7   8
ENDBRANCH   1   7
TORSDOF 6
ENDMDL
MODEL 4
REMARK VINA RESULT:      -3.0      2.513      2.932
REMARK  Name = .\Allicin.pdb
REMARK  7 active torsions:
REMARK  status: ('A' for Active; 'I' for Inactive)
REMARK    1  A    between atoms: C1_1  and  C2_2
REMARK    2  A    between atoms: C2_2  and  O1_10
REMARK    3  A    between atoms: C3_3  and  C4_4
REMARK    4  A    between atoms: C4_4  and  S1_5
REMARK    5  A    between atoms: S1_5  and  S2_6
REMARK    6  A    between atoms: S2_6  and  C5_7
REMARK    7  A    between atoms: C5_7  and  C6_8
REMARK                            x       y       z     vdW  Elec       q    Type
REMARK                         _______ _______ _______ _____ _____    ______ ____
ROOT
ATOM      1  C4  UNL     1      -8.678  44.373 -31.941  0.00  0.00    +0.000 C 
ENDROOT
BRANCH   1   4
ATOM      2  C1  UNL     1      -5.851  46.063 -33.968  0.00  0.00    +0.000 C 
ATOM      3  C2  UNL     1      -6.842  45.046 -33.485  0.00  0.00    +0.000 C 
ATOM      4  C3  UNL     1      -7.658  45.342 -32.465  0.00  0.00    +0.000 C 
BRANCH   3   5
ATOM      5  O1  UNL     1      -6.921  43.801 -34.108  0.00  0.00    +0.000 OA
ATOM      6  H12 UNL     1      -6.278  43.051 -33.880  0.00  0.00    +0.000 HD
ENDBRANCH   3   5
ENDBRANCH   1   4
BRANCH   1   7
ATOM      7  S1  UNL     1     -10.370  44.915 -32.364  0.00  0.00    +0.000 S 
BRANCH   7   8
ATOM      8  S2  UNL     1     -10.568  43.569 -34.014  0.00  0.00    +0.000 S 
BRANCH   8   9
ATOM      9  C5  UNL     1     -10.880  44.886 -35.233  0.00  0.00    +0.000 C 
BRANCH   9  10
ATOM     10  C6  UNL     1     -10.450  46.214 -34.679  0.00  0.00    +0.000 C 
ATOM     11  C7  UNL     1      -9.703  47.067 -35.386  0.00  0.00    +0.000 C 
ENDBRANCH   9  10
ENDBRANCH   8   9
ENDBRANCH   7   8
ENDBRANCH   1   7
TORSDOF 6
ENDMDL
MODEL 5
REMARK VINA RESULT:      -2.9      3.359      5.035
REMARK  Name = .\Allicin.pdb
REMARK  7 active torsions:
REMARK  status: ('A' for Active; 'I' for Inactive)
REMARK    1  A    between atoms: C1_1  and  C2_2
REMARK    2  A    between atoms: C2_2  and  O1_10
REMARK    3  A    between atoms: C3_3  and  C4_4
REMARK    4  A    between atoms: C4_4  and  S1_5
REMARK    5  A    between atoms: S1_5  and  S2_6
REMARK    6  A    between atoms: S2_6  and  C5_7
REMARK    7  A    between atoms: C5_7  and  C6_8
REMARK                            x       y       z     vdW  Elec       q    Type
REMARK                         _______ _______ _______ _____ _____    ______ ____
ROOT
ATOM      1  C4  UNL     1      -9.820  43.822 -34.518  0.00  0.00    +0.000 C 
ENDROOT
BRANCH   1   4
ATOM      2  C1  UNL     1     -10.074  47.558 -35.486  0.00  0.00    +0.000 C 
ATOM      3  C2  UNL     1      -9.534  46.171 -35.298  0.00  0.00    +0.000 C 
ATOM      4  C3  UNL     1     -10.296  45.231 -34.724  0.00  0.00    +0.000 C 
BRANCH   3   5
ATOM      5  O1  UNL     1      -8.246  45.860 -35.735  0.00  0.00    +0.000 OA
ATOM      6  H12 UNL     1      -7.959  44.903 -35.903  0.00  0.00    +0.000 HD
ENDBRANCH   3   5
ENDBRANCH   1   4
BRANCH   1   7
ATOM      7  S1  UNL     1     -10.634  43.062 -33.072  0.00  0.00    +0.000 S 
BRANCH   7   8
ATOM      8  S2  UNL     1     -10.531  44.832 -31.874  0.00  0.00    +0.000 S 
BRANCH   8   9
ATOM      9  C5  UNL     1      -9.169  44.217 -30.831  0.00  0.00    +0.000 C 
BRANCH   9  10
ATOM     10  C6  UNL     1      -7.985  45.134 -30.937  0.00  0.00    +0.000 C 
ATOM     11  C7  UNL     1      -7.637  45.710 -32.091  0.00  0.00    +0.000 C 
ENDBRANCH   9  10
ENDBRANCH   8   9
ENDBRANCH   7   8
ENDBRANCH   1   7
TORSDOF 6
ENDMDL
MODEL 6
REMARK VINA RESULT:      -2.8      2.916      5.019
REMARK  Name = .\Allicin.pdb
REMARK  7 active torsions:
REMARK  status: ('A' for Active; 'I' for Inactive)
REMARK    1  A    between atoms: C1_1  and  C2_2
REMARK    2  A    between atoms: C2_2  and  O1_10
REMARK    3  A    between atoms: C3_3  and  C4_4
REMARK    4  A    between atoms: C4_4  and  S1_5
REMARK    5  A    between atoms: S1_5  and  S2_6
REMARK    6  A    between atoms: S2_6  and  C5_7
REMARK    7  A    between atoms: C5_7  and  C6_8
REMARK                            x       y       z     vdW  Elec       q    Type
REMARK                         _______ _______ _______ _____ _____    ______ ____
ROOT
ATOM      1  C4  UNL     1      -9.249  43.172 -34.861  0.00  0.00    +0.000 C 
ENDROOT
BRANCH   1   4
ATOM      2  C1  UNL     1     -10.412  46.855 -35.059  0.00  0.00    +0.000 C 
ATOM      3  C2  UNL     1      -9.555  45.627 -35.152  0.00  0.00    +0.000 C 
ATOM      4  C3  UNL     1     -10.049  44.440 -34.781  0.00  0.00    +0.000 C 
BRANCH   3   5
ATOM      5  O1  UNL     1      -8.252  45.724 -35.639  0.00  0.00    +0.000 OA
ATOM      6  H12 UNL     1      -8.060  45.800 -36.631  0.00  0.00    +0.000 HD
ENDBRANCH   3   5
ENDBRANCH   1   4
BRANCH   1   7
ATOM      7  S1  UNL     1      -9.078  42.402 -33.215  0.00  0.00    +0.000 S 
BRANCH   7   8
ATOM      8  S2  UNL     1      -6.959  42.152 -33.366  0.00  0.00    +0.000 S 
BRANCH   8   9
ATOM      9  C5  UNL     1      -6.592  43.921 -33.127  0.00  0.00    +0.000 C 
BRANCH   9  10
ATOM     10  C6  UNL     1      -7.395  44.463 -31.979  0.00  0.00    +0.000 C 
ATOM     11  C7  UNL     1      -7.703  45.760 -31.882  0.00  0.00    +0.000 C 
ENDBRANCH   9  10
ENDBRANCH   8   9
ENDBRANCH   7   8
ENDBRANCH   1   7
TORSDOF 6
ENDMDL
MODEL 7
REMARK VINA RESULT:      -2.7      3.503      4.338
REMARK  Name = .\Allicin.pdb
REMARK  7 active torsions:
REMARK  status: ('A' for Active; 'I' for Inactive)
REMARK    1  A    between atoms: C1_1  and  C2_2
REMARK    2  A    between atoms: C2_2  and  O1_10
REMARK    3  A    between atoms: C3_3  and  C4_4
REMARK    4  A    between atoms: C4_4  and  S1_5
REMARK    5  A    between atoms: S1_5  and  S2_6
REMARK    6  A    between atoms: S2_6  and  C5_7
REMARK    7  A    between atoms: C5_7  and  C6_8
REMARK                            x       y       z     vdW  Elec       q    Type
REMARK                         _______ _______ _______ _____ _____    ______ ____
ROOT
ATOM      1  C4  UNL     1      -8.456  44.311 -32.728  0.00  0.00    +0.000 C 
ENDROOT
BRANCH   1   4
ATOM      2  C1  UNL     1      -9.504  46.931 -35.372  0.00  0.00    +0.000 C 
ATOM      3  C2  UNL     1      -9.093  45.634 -34.740  0.00  0.00    +0.000 C 
ATOM      4  C3  UNL     1      -8.858  45.579 -33.423  0.00  0.00    +0.000 C 
BRANCH   3   5
ATOM      5  O1  UNL     1      -8.971  44.487 -35.523  0.00  0.00    +0.000 OA
ATOM      6  H12 UNL     1      -8.069  44.064 -35.708  0.00  0.00    +0.000 HD
ENDBRANCH   3   5
ENDBRANCH   1   4
BRANCH   1   7
ATOM      7  S1  UNL     1      -9.918  43.304 -32.306  0.00  0.00    +0.000 S 
BRANCH   7   8
ATOM      8  S2  UNL     1     -10.485  44.523 -30.642  0.00  0.00    +0.000 S 
BRANCH   8   9
ATOM      9  C5  UNL     1     -12.194  44.770 -31.225  0.00  0.00    +0.000 C 
BRANCH   9  10
ATOM     10  C6  UNL     1     -12.239  45.882 -32.233  0.00  0.00    +0.000 C 
ATOM     11  C7  UNL     1     -12.594  45.670 -33.504  0.00  0.00    +0.000 C 
ENDBRANCH   9  10
ENDBRANCH   8   9
ENDBRANCH   7   8
ENDBRANCH   1   7
TORSDOF 6
ENDMDL
MODEL 8
REMARK VINA RESULT:      -2.7      2.789      5.220
REMARK  Name = .\Allicin.pdb
REMARK  7 active torsions:
REMARK  status: ('A' for Active; 'I' for Inactive)
REMARK    1  A    between atoms: C1_1  and  C2_2
REMARK    2  A    between atoms: C2_2  and  O1_10
REMARK    3  A    between atoms: C3_3  and  C4_4
REMARK    4  A    between atoms: C4_4  and  S1_5
REMARK    5  A    between atoms: S1_5  and  S2_6
REMARK    6  A    between atoms: S2_6  and  C5_7
REMARK    7  A    between atoms: C5_7  and  C6_8
REMARK                            x       y       z     vdW  Elec       q    Type
REMARK                         _______ _______ _______ _____ _____    ______ ____
ROOT
ATOM      1  C4  UNL     1      -9.618  42.709 -33.126  0.00  0.00    +0.000 C 
ENDROOT
BRANCH   1   4
ATOM      2  C1  UNL     1     -10.670  45.628 -35.434  0.00  0.00    +0.000 C 
ATOM      3  C2  UNL     1      -9.935  44.438 -34.891  0.00  0.00    +0.000 C 
ATOM      4  C3  UNL     1     -10.303  43.906 -33.718  0.00  0.00    +0.000 C 
BRANCH   3   5
ATOM      5  O1  UNL     1      -8.883  43.879 -35.616  0.00  0.00    +0.000 OA
ATOM      6  H12 UNL     1      -8.438  44.380 -36.377  0.00  0.00    +0.000 HD
ENDBRANCH   3   5
ENDBRANCH   1   4
BRANCH   1   7
ATOM      7  S1  UNL     1      -8.278  43.216 -31.994  0.00  0.00    +0.000 S 
BRANCH   7   8
ATOM      8  S2  UNL     1      -6.722  42.353 -33.182  0.00  0.00    +0.000 S 
BRANCH   8   9
ATOM      9  C5  UNL     1      -5.819  43.923 -33.391  0.00  0.00    +0.000 C 
BRANCH   9  10
ATOM     10  C6  UNL     1      -6.713  45.080 -33.050  0.00  0.00    +0.000 C 
ATOM     11  C7  UNL     1      -6.780  46.172 -33.818  0.00  0.00    +0.000 C 
ENDBRANCH   9  10
ENDBRANCH   8   9
ENDBRANCH   7   8
ENDBRANCH   1   7
TORSDOF 6
ENDMDL
MODEL 9
REMARK VINA RESULT:      -2.7      1.670      1.824
REMARK  Name = .\Allicin.pdb
REMARK  7 active torsions:
REMARK  status: ('A' for Active; 'I' for Inactive)
REMARK    1  A    between atoms: C1_1  and  C2_2
REMARK    2  A    between atoms: C2_2  and  O1_10
REMARK    3  A    between atoms: C3_3  and  C4_4
REMARK    4  A    between atoms: C4_4  and  S1_5
REMARK    5  A    between atoms: S1_5  and  S2_6
REMARK    6  A    between atoms: S2_6  and  C5_7
REMARK    7  A    between atoms: C5_7  and  C6_8
REMARK                            x       y       z     vdW  Elec       q    Type
REMARK                         _______ _______ _______ _____ _____    ______ ____
ROOT
ATOM      1  C4  UNL     1      -7.541  43.849 -32.453  0.00  0.00    +0.000 C 
ENDROOT
BRANCH   1   4
ATOM      2  C1  UNL     1      -3.953  44.098 -33.873  0.00  0.00    +0.000 C 
ATOM      3  C2  UNL     1      -5.389  44.413 -33.574  0.00  0.00    +0.000 C 
ATOM      4  C3  UNL     1      -6.105  43.586 -32.801  0.00  0.00    +0.000 C 
BRANCH   3   5
ATOM      5  O1  UNL     1      -5.969  45.573 -34.087  0.00  0.00    +0.000 OA
ATOM      6  H12 UNL     1      -6.782  45.537 -34.690  0.00  0.00    +0.000 HD
ENDBRANCH   3   5
ENDBRANCH   1   4
BRANCH   1   7
ATOM      7  S1  UNL     1      -8.652  42.736 -33.380  0.00  0.00    +0.000 S 
BRANCH   7   8
ATOM      8  S2  UNL     1      -9.300  44.249 -34.747  0.00  0.00    +0.000 S 
BRANCH   8   9
ATOM      9  C5  UNL     1      -9.534  45.514 -33.456  0.00  0.00    +0.000 C 
BRANCH   9  10
ATOM     10  C6  UNL     1     -10.922  45.422 -32.890  0.00  0.00    +0.000 C 
ATOM     11  C7  UNL     1     -11.897  46.251 -33.272  0.00  0.00    +0.000 C 
ENDBRANCH   9  10
ENDBRANCH   8   9
ENDBRANCH   7   8
ENDBRANCH   1   7
TORSDOF 6
ENDMDL
