MODEL 1
REMARK VINA RESULT:       4.0      0.000      0.000
REMARK  Name = .\Apigenin.pdb
REMARK  4 active torsions:
REMARK  status: ('A' for Active; 'I' for Inactive)
REMARK    1  A    between atoms: C3_3  and  O5_20
REMARK    2  A    between atoms: C6_6  and  C7_7
REMARK    3  A    between atoms: C11_12  and  O4_19
REMARK    4  A    between atoms: C13_14  and  O3_18
REMARK                            x       y       z     vdW  Elec       q    Type
REMARK                         _______ _______ _______ _____ _____    ______ ____
ROOT
ATOM      1  C7  UNL     1       6.956  45.516  25.003  0.00  0.00    +0.000 A 
ATOM      2  C8  UNL     1       7.370  44.228  24.626  0.00  0.00    +0.000 A 
ATOM      3  C9  UNL     1       8.393  44.072  23.690  0.00  0.00    +0.000 A 
ATOM      4  O1  UNL     1       8.733  42.903  23.380  0.00  0.00    +0.000 OA
ATOM      5  C10 UNL     1       9.010  45.212  23.120  0.00  0.00    +0.000 A 
ATOM      6  C11 UNL     1      10.066  45.182  22.153  0.00  0.00    +0.000 A 
ATOM      7  C12 UNL     1      10.590  46.387  21.668  0.00  0.00    +0.000 A 
ATOM      8  C13 UNL     1      10.104  47.619  22.111  0.00  0.00    +0.000 A 
ATOM      9  C14 UNL     1       9.079  47.659  23.051  0.00  0.00    +0.000 A 
ATOM     10  C15 UNL     1       8.532  46.477  23.555  0.00  0.00    +0.000 A 
ATOM     11  O2  UNL     1       7.555  46.566  24.451  0.00  0.00    +0.000 OA
ENDROOT
BRANCH   1  17
ATOM     12  C1  UNL     1       5.378  44.765  26.867  0.00  0.00    +0.000 A 
ATOM     13  C2  UNL     1       4.359  45.051  27.782  0.00  0.00    +0.000 A 
ATOM     14  C3  UNL     1       3.810  46.335  27.851  0.00  0.00    +0.000 A 
ATOM     15  C4  UNL     1       4.284  47.334  27.001  0.00  0.00    +0.000 A 
ATOM     16  C5  UNL     1       5.302  47.056  26.084  0.00  0.00    +0.000 A 
ATOM     17  C6  UNL     1       5.869  45.767  26.000  0.00  0.00    +0.000 A 
BRANCH  14  18
ATOM     18  O5  UNL     1       2.795  46.628  28.759  0.00  0.00    +0.000 OA
ATOM     19  H10 UNL     1       1.819  46.485  28.526  0.00  0.00    +0.000 HD
ENDBRANCH  14  18
ENDBRANCH   1  17
BRANCH   8  20
ATOM     20  O3  UNL     1      10.635  48.810  21.621  0.00  0.00    +0.000 OA
ATOM     21  H8  UNL     1      11.438  49.251  22.053  0.00  0.00    +0.000 HD
ENDBRANCH   8  20
BRANCH   6  22
ATOM     22  O4  UNL     1      10.635  44.014  21.633  0.00  0.00    +0.000 OA
ATOM     23  H9  UNL     1      10.305  43.491  20.840  0.00  0.00    +0.000 HD
ENDBRANCH   6  22
TORSDOF 4
ENDMDL
MODEL 2
REMARK VINA RESULT:       4.3      1.300      2.975
REMARK  Name = .\Apigenin.pdb
REMARK  4 active torsions:
REMARK  status: ('A' for Active; 'I' for Inactive)
REMARK    1  A    between atoms: C3_3  and  O5_20
REMARK    2  A    between atoms: C6_6  and  C7_7
REMARK    3  A    between atoms: C11_12  and  O4_19
REMARK    4  A    between atoms: C13_14  and  O3_18
REMARK                            x       y       z     vdW  Elec       q    Type
REMARK                         _______ _______ _______ _____ _____    ______ ____
ROOT
ATOM      1  C7  UNL     1       6.863  45.555  24.938  0.00  0.00    +0.000 A 
ATOM      2  C8  UNL     1       7.270  46.846  24.568  0.00  0.00    +0.000 A 
ATOM      3  C9  UNL     1       8.307  47.013  23.648  0.00  0.00    +0.000 A 
ATOM      4  O1  UNL     1       8.641  48.186  23.345  0.00  0.00    +0.000 OA
ATOM      5  C10 UNL     1       8.947  45.879  23.090  0.00  0.00    +0.000 A 
ATOM      6  C11 UNL     1      10.018  45.920  22.141  0.00  0.00    +0.000 A 
ATOM      7  C12 UNL     1      10.563  44.721  21.667  0.00  0.00    +0.000 A 
ATOM      8  C13 UNL     1      10.082  43.484  22.101  0.00  0.00    +0.000 A 
ATOM      9  C14 UNL     1       9.041  43.434  23.024  0.00  0.00    +0.000 A 
ATOM     10  C15 UNL     1       8.474  44.610  23.518  0.00  0.00    +0.000 A 
ATOM     11  O2  UNL     1       7.483  44.510  24.397  0.00  0.00    +0.000 OA
ENDROOT
BRANCH   1  17
ATOM     12  C1  UNL     1       4.924  46.313  26.419  0.00  0.00    +0.000 A 
ATOM     13  C2  UNL     1       3.907  46.017  27.332  0.00  0.00    +0.000 A 
ATOM     14  C3  UNL     1       3.704  44.701  27.761  0.00  0.00    +0.000 A 
ATOM     15  C4  UNL     1       4.523  43.683  27.273  0.00  0.00    +0.000 A 
ATOM     16  C5  UNL     1       5.541  43.972  26.360  0.00  0.00    +0.000 A 
ATOM     17  C6  UNL     1       5.761  45.293  25.915  0.00  0.00    +0.000 A 
BRANCH  14  18
ATOM     18  O5  UNL     1       2.694  44.396  28.670  0.00  0.00    +0.000 OA
ATOM     19  H10 UNL     1       2.865  44.391  29.669  0.00  0.00    +0.000 HD
ENDBRANCH  14  18
ENDBRANCH   1  17
BRANCH   8  20
ATOM     20  O3  UNL     1      10.634  42.299  21.621  0.00  0.00    +0.000 OA
ATOM     21  H8  UNL     1      10.496  41.998  20.664  0.00  0.00    +0.000 HD
ENDBRANCH   8  20
BRANCH   6  22
ATOM     22  O4  UNL     1      10.584  47.094  21.631  0.00  0.00    +0.000 OA
ATOM     23  H9  UNL     1      10.833  47.914  22.157  0.00  0.00    +0.000 HD
ENDBRANCH   6  22
TORSDOF 4
ENDMDL
MODEL 3
REMARK VINA RESULT:       6.8      1.516      1.752
REMARK  Name = .\Apigenin.pdb
REMARK  4 active torsions:
REMARK  status: ('A' for Active; 'I' for Inactive)
REMARK    1  A    between atoms: C3_3  and  O5_20
REMARK    2  A    between atoms: C6_6  and  C7_7
REMARK    3  A    between atoms: C11_12  and  O4_19
REMARK    4  A    between atoms: C13_14  and  O3_18
REMARK                            x       y       z     vdW  Elec       q    Type
REMARK                         _______ _______ _______ _____ _____    ______ ____
ROOT
ATOM      1  C7  UNL     1       6.929  45.030  25.259  0.00  0.00    +0.000 A 
ATOM      2  C8  UNL     1       7.869  44.092  24.805  0.00  0.00    +0.000 A 
ATOM      3  C9  UNL     1       8.777  44.444  23.805  0.00  0.00    +0.000 A 
ATOM      4  O1  UNL     1       9.602  43.574  23.428  0.00  0.00    +0.000 OA
ATOM      5  C10 UNL     1       8.747  45.745  23.248  0.00  0.00    +0.000 A 
ATOM      6  C11 UNL     1       9.622  46.223  22.221  0.00  0.00    +0.000 A 
ATOM      7  C12 UNL     1       9.486  47.538  21.757  0.00  0.00    +0.000 A 
ATOM      8  C13 UNL     1       8.512  48.393  22.278  0.00  0.00    +0.000 A 
ATOM      9  C14 UNL     1       7.657  47.937  23.277  0.00  0.00    +0.000 A 
ATOM     10  C15 UNL     1       7.765  46.633  23.762  0.00  0.00    +0.000 A 
ATOM     11  O2  UNL     1       6.925  46.244  24.717  0.00  0.00    +0.000 OA
ENDROOT
BRANCH   1  17
ATOM     12  C1  UNL     1       6.067  45.178  27.660  0.00  0.00    +0.000 A 
ATOM     13  C2  UNL     1       5.099  44.872  28.622  0.00  0.00    +0.000 A 
ATOM     14  C3  UNL     1       3.973  44.117  28.277  0.00  0.00    +0.000 A 
ATOM     15  C4  UNL     1       3.819  43.669  26.965  0.00  0.00    +0.000 A 
ATOM     16  C5  UNL     1       4.782  43.971  25.999  0.00  0.00    +0.000 A 
ATOM     17  C6  UNL     1       5.924  44.732  26.327  0.00  0.00    +0.000 A 
BRANCH  14  18
ATOM     18  O5  UNL     1       3.005  43.807  29.229  0.00  0.00    +0.000 OA
ATOM     19  H10 UNL     1       2.117  43.394  28.967  0.00  0.00    +0.000 HD
ENDBRANCH  14  18
ENDBRANCH   1  17
BRANCH   8  20
ATOM     20  O3  UNL     1       8.388  49.698  21.808  0.00  0.00    +0.000 OA
ATOM     21  H8  UNL     1       9.198  50.283  21.644  0.00  0.00    +0.000 HD
ENDBRANCH   8  20
BRANCH   6  22
ATOM     22  O4  UNL     1      10.633  45.465  21.621  0.00  0.00    +0.000 OA
ATOM     23  H9  UNL     1      11.468  45.124  22.067  0.00  0.00    +0.000 HD
ENDBRANCH   6  22
TORSDOF 4
ENDMDL
