MODEL 1
REMARK VINA RESULT:      -5.5      0.000      0.000
REMARK  Name = .\Apigenin.pdb
REMARK  4 active torsions:
REMARK  status: ('A' for Active; 'I' for Inactive)
REMARK    1  A    between atoms: C3_3  and  O5_20
REMARK    2  A    between atoms: C6_6  and  C7_7
REMARK    3  A    between atoms: C11_12  and  O4_19
REMARK    4  A    between atoms: C13_14  and  O3_18
REMARK                            x       y       z     vdW  Elec       q    Type
REMARK                         _______ _______ _______ _____ _____    ______ ____
ROOT
ATOM      1  C7  UNL     1       3.044  60.244  80.627  0.00  0.00    +0.000 A 
ATOM      2  C8  UNL     1       1.998  60.020  79.718  0.00  0.00    +0.000 A 
ATOM      3  C9  UNL     1       1.627  58.715  79.392  0.00  0.00    +0.000 A 
ATOM      4  O1  UNL     1       0.686  58.558  78.574  0.00  0.00    +0.000 OA
ATOM      5  C10 UNL     1       2.307  57.619  79.976  0.00  0.00    +0.000 A 
ATOM      6  C11 UNL     1       2.020  56.239  79.722  0.00  0.00    +0.000 A 
ATOM      7  C12 UNL     1       2.771  55.249  80.368  0.00  0.00    +0.000 A 
ATOM      8  C13 UNL     1       3.794  55.582  81.258  0.00  0.00    +0.000 A 
ATOM      9  C14 UNL     1       4.081  56.920  81.512  0.00  0.00    +0.000 A 
ATOM     10  C15 UNL     1       3.353  57.932  80.884  0.00  0.00    +0.000 A 
ATOM     11  O2  UNL     1       3.664  59.194  81.159  0.00  0.00    +0.000 OA
ENDROOT
BRANCH   1  17
ATOM     12  C1  UNL     1       4.367  61.840  82.122  0.00  0.00    +0.000 A 
ATOM     13  C2  UNL     1       4.764  63.138  82.458  0.00  0.00    +0.000 A 
ATOM     14  C3  UNL     1       4.308  64.231  81.715  0.00  0.00    +0.000 A 
ATOM     15  C4  UNL     1       3.452  64.021  80.633  0.00  0.00    +0.000 A 
ATOM     16  C5  UNL     1       3.051  62.727  80.292  0.00  0.00    +0.000 A 
ATOM     17  C6  UNL     1       3.501  61.611  81.029  0.00  0.00    +0.000 A 
BRANCH  14  18
ATOM     18  O5  UNL     1       4.698  65.528  82.042  0.00  0.00    +0.000 OA
ATOM     19  H10 UNL     1       5.030  65.762  82.971  0.00  0.00    +0.000 HD
ENDBRANCH  14  18
ENDBRANCH   1  17
BRANCH   8  20
ATOM     20  O3  UNL     1       4.533  54.587  81.894  0.00  0.00    +0.000 OA
ATOM     21  H8  UNL     1       5.494  54.738  82.178  0.00  0.00    +0.000 HD
ENDBRANCH   8  20
BRANCH   6  22
ATOM     22  O4  UNL     1       1.023  55.782  78.854  0.00  0.00    +0.000 OA
ATOM     23  H9  UNL     1       1.050  54.941  78.302  0.00  0.00    +0.000 HD
ENDBRANCH   6  22
TORSDOF 4
ENDMDL
MODEL 2
REMARK VINA RESULT:      -5.2      1.152      2.928
REMARK  Name = .\Apigenin.pdb
REMARK  4 active torsions:
REMARK  status: ('A' for Active; 'I' for Inactive)
REMARK    1  A    between atoms: C3_3  and  O5_20
REMARK    2  A    between atoms: C6_6  and  C7_7
REMARK    3  A    between atoms: C11_12  and  O4_19
REMARK    4  A    between atoms: C13_14  and  O3_18
REMARK                            x       y       z     vdW  Elec       q    Type
REMARK                         _______ _______ _______ _____ _____    ______ ____
ROOT
ATOM      1  C7  UNL     1       3.499  59.908  81.429  0.00  0.00    +0.000 A 
ATOM      2  C8  UNL     1       4.282  59.215  82.365  0.00  0.00    +0.000 A 
ATOM      3  C9  UNL     1       4.293  57.819  82.366  0.00  0.00    +0.000 A 
ATOM      4  O1  UNL     1       5.008  57.238  83.222  0.00  0.00    +0.000 OA
ATOM      5  C10 UNL     1       3.514  57.105  81.425  0.00  0.00    +0.000 A 
ATOM      6  C11 UNL     1       3.443  55.678  81.326  0.00  0.00    +0.000 A 
ATOM      7  C12 UNL     1       2.630  55.095  80.345  0.00  0.00    +0.000 A 
ATOM      8  C13 UNL     1       1.889  55.880  79.459  0.00  0.00    +0.000 A 
ATOM      9  C14 UNL     1       1.952  57.267  79.547  0.00  0.00    +0.000 A 
ATOM     10  C15 UNL     1       2.751  57.881  80.513  0.00  0.00    +0.000 A 
ATOM     11  O2  UNL     1       2.778  59.209  80.557  0.00  0.00    +0.000 OA
ENDROOT
BRANCH   1  17
ATOM     12  C1  UNL     1       2.885  62.096  80.260  0.00  0.00    +0.000 A 
ATOM     13  C2  UNL     1       2.847  63.494  80.245  0.00  0.00    +0.000 A 
ATOM     14  C3  UNL     1       3.353  64.226  81.324  0.00  0.00    +0.000 A 
ATOM     15  C4  UNL     1       3.898  63.554  82.418  0.00  0.00    +0.000 A 
ATOM     16  C5  UNL     1       3.939  62.158  82.440  0.00  0.00    +0.000 A 
ATOM     17  C6  UNL     1       3.433  61.401  81.361  0.00  0.00    +0.000 A 
BRANCH  14  18
ATOM     18  O5  UNL     1       3.320  65.619  81.317  0.00  0.00    +0.000 OA
ATOM     19  H10 UNL     1       2.997  66.137  80.509  0.00  0.00    +0.000 HD
ENDBRANCH  14  18
ENDBRANCH   1  17
BRANCH   8  20
ATOM     20  O3  UNL     1       1.085  55.287  78.488  0.00  0.00    +0.000 OA
ATOM     21  H8  UNL     1       0.107  55.086  78.659  0.00  0.00    +0.000 HD
ENDBRANCH   8  20
BRANCH   6  22
ATOM     22  O4  UNL     1       4.136  54.788  82.154  0.00  0.00    +0.000 OA
ATOM     23  H9  UNL     1       4.799  54.091  81.858  0.00  0.00    +0.000 HD
ENDBRANCH   6  22
TORSDOF 4
ENDMDL
MODEL 3
REMARK VINA RESULT:      -5.1      1.457      3.012
REMARK  Name = .\Apigenin.pdb
REMARK  4 active torsions:
REMARK  status: ('A' for Active; 'I' for Inactive)
REMARK    1  A    between atoms: C3_3  and  O5_20
REMARK    2  A    between atoms: C6_6  and  C7_7
REMARK    3  A    between atoms: C11_12  and  O4_19
REMARK    4  A    between atoms: C13_14  and  O3_18
REMARK                            x       y       z     vdW  Elec       q    Type
REMARK                         _______ _______ _______ _____ _____    ______ ____
ROOT
ATOM      1  C7  UNL     1       3.892  60.453  81.724  0.00  0.00    +0.000 A 
ATOM      2  C8  UNL     1       4.265  59.259  82.362  0.00  0.00    +0.000 A 
ATOM      3  C9  UNL     1       3.795  58.036  81.881  0.00  0.00    +0.000 A 
ATOM      4  O1  UNL     1       4.153  56.992  82.482  0.00  0.00    +0.000 OA
ATOM      5  C10 UNL     1       2.941  58.001  80.752  0.00  0.00    +0.000 A 
ATOM      6  C11 UNL     1       2.395  56.814  80.167  0.00  0.00    +0.000 A 
ATOM      7  C12 UNL     1       1.560  56.919  79.048  0.00  0.00    +0.000 A 
ATOM      8  C13 UNL     1       1.251  58.161  78.489  0.00  0.00    +0.000 A 
ATOM      9  C14 UNL     1       1.777  59.321  79.050  0.00  0.00    +0.000 A 
ATOM     10  C15 UNL     1       2.612  59.253  80.167  0.00  0.00    +0.000 A 
ATOM     11  O2  UNL     1       3.089  60.388  80.666  0.00  0.00    +0.000 OA
ENDROOT
BRANCH   1  17
ATOM     12  C1  UNL     1       4.482  62.152  83.540  0.00  0.00    +0.000 A 
ATOM     13  C2  UNL     1       4.918  63.427  83.912  0.00  0.00    +0.000 A 
ATOM     14  C3  UNL     1       5.235  64.378  82.937  0.00  0.00    +0.000 A 
ATOM     15  C4  UNL     1       5.114  64.048  81.587  0.00  0.00    +0.000 A 
ATOM     16  C5  UNL     1       4.679  62.775  81.208  0.00  0.00    +0.000 A 
ATOM     17  C6  UNL     1       4.354  61.802  82.177  0.00  0.00    +0.000 A 
BRANCH  14  18
ATOM     18  O5  UNL     1       5.670  65.651  83.298  0.00  0.00    +0.000 OA
ATOM     19  H10 UNL     1       5.319  66.482  82.836  0.00  0.00    +0.000 HD
ENDBRANCH  14  18
ENDBRANCH   1  17
BRANCH   8  20
ATOM     20  O3  UNL     1       0.420  58.251  77.375  0.00  0.00    +0.000 OA
ATOM     21  H8  UNL     1      -0.585  58.148  77.452  0.00  0.00    +0.000 HD
ENDBRANCH   8  20
BRANCH   6  22
ATOM     22  O4  UNL     1       2.630  55.517  80.635  0.00  0.00    +0.000 OA
ATOM     23  H9  UNL     1       2.166  55.065  81.405  0.00  0.00    +0.000 HD
ENDBRANCH   6  22
TORSDOF 4
ENDMDL
MODEL 4
REMARK VINA RESULT:      -5.1      1.789      7.299
REMARK  Name = .\Apigenin.pdb
REMARK  4 active torsions:
REMARK  status: ('A' for Active; 'I' for Inactive)
REMARK    1  A    between atoms: C3_3  and  O5_20
REMARK    2  A    between atoms: C6_6  and  C7_7
REMARK    3  A    between atoms: C11_12  and  O4_19
REMARK    4  A    between atoms: C13_14  and  O3_18
REMARK                            x       y       z     vdW  Elec       q    Type
REMARK                         _______ _______ _______ _____ _____    ______ ____
ROOT
ATOM      1  C7  UNL     1       3.252  60.693  80.793  0.00  0.00    +0.000 A 
ATOM      2  C8  UNL     1       3.237  60.943  82.174  0.00  0.00    +0.000 A 
ATOM      3  C9  UNL     1       3.798  62.119  82.674  0.00  0.00    +0.000 A 
ATOM      4  O1  UNL     1       3.765  62.304  83.917  0.00  0.00    +0.000 OA
ATOM      5  C10 UNL     1       4.382  63.057  81.789  0.00  0.00    +0.000 A 
ATOM      6  C11 UNL     1       4.987  64.294  82.179  0.00  0.00    +0.000 A 
ATOM      7  C12 UNL     1       5.530  65.135  81.199  0.00  0.00    +0.000 A 
ATOM      8  C13 UNL     1       5.491  64.790  79.847  0.00  0.00    +0.000 A 
ATOM      9  C14 UNL     1       4.905  63.589  79.457  0.00  0.00    +0.000 A 
ATOM     10  C15 UNL     1       4.355  62.727  80.408  0.00  0.00    +0.000 A 
ATOM     11  O2  UNL     1       3.807  61.592  79.987  0.00  0.00    +0.000 OA
ENDROOT
BRANCH   1  17
ATOM     12  C1  UNL     1       1.676  59.495  79.177  0.00  0.00    +0.000 A 
ATOM     13  C2  UNL     1       1.164  58.312  78.634  0.00  0.00    +0.000 A 
ATOM     14  C3  UNL     1       1.632  57.071  79.078  0.00  0.00    +0.000 A 
ATOM     15  C4  UNL     1       2.614  57.018  80.067  0.00  0.00    +0.000 A 
ATOM     16  C5  UNL     1       3.129  58.197  80.613  0.00  0.00    +0.000 A 
ATOM     17  C6  UNL     1       2.671  59.458  80.179  0.00  0.00    +0.000 A 
BRANCH  14  18
ATOM     18  O5  UNL     1       1.128  55.888  78.543  0.00  0.00    +0.000 OA
ATOM     19  H10 UNL     1       0.141  55.775  78.343  0.00  0.00    +0.000 HD
ENDBRANCH  14  18
ENDBRANCH   1  17
BRANCH   8  20
ATOM     20  O3  UNL     1       6.035  65.635  78.882  0.00  0.00    +0.000 OA
ATOM     21  H8  UNL     1       6.931  66.088  79.017  0.00  0.00    +0.000 HD
ENDBRANCH   8  20
BRANCH   6  22
ATOM     22  O4  UNL     1       5.086  64.749  83.498  0.00  0.00    +0.000 OA
ATOM     23  H9  UNL     1       5.717  64.406  84.203  0.00  0.00    +0.000 HD
ENDBRANCH   6  22
TORSDOF 4
ENDMDL
MODEL 5
REMARK VINA RESULT:      -5.0      1.683      7.139
REMARK  Name = .\Apigenin.pdb
REMARK  4 active torsions:
REMARK  status: ('A' for Active; 'I' for Inactive)
REMARK    1  A    between atoms: C3_3  and  O5_20
REMARK    2  A    between atoms: C6_6  and  C7_7
REMARK    3  A    between atoms: C11_12  and  O4_19
REMARK    4  A    between atoms: C13_14  and  O3_18
REMARK                            x       y       z     vdW  Elec       q    Type
REMARK                         _______ _______ _______ _____ _____    ______ ____
ROOT
ATOM      1  C7  UNL     1       3.521  59.315  81.273  0.00  0.00    +0.000 A 
ATOM      2  C8  UNL     1       4.345  59.284  82.410  0.00  0.00    +0.000 A 
ATOM      3  C9  UNL     1       4.920  60.464  82.885  0.00  0.00    +0.000 A 
ATOM      4  O1  UNL     1       5.652  60.392  83.905  0.00  0.00    +0.000 OA
ATOM      5  C10 UNL     1       4.673  61.689  82.220  0.00  0.00    +0.000 A 
ATOM      6  C11 UNL     1       5.203  62.960  82.609  0.00  0.00    +0.000 A 
ATOM      7  C12 UNL     1       4.879  64.100  81.863  0.00  0.00    +0.000 A 
ATOM      8  C13 UNL     1       4.046  64.020  80.744  0.00  0.00    +0.000 A 
ATOM      9  C14 UNL     1       3.525  62.789  80.357  0.00  0.00    +0.000 A 
ATOM     10  C15 UNL     1       3.829  61.633  81.079  0.00  0.00    +0.000 A 
ATOM     11  O2  UNL     1       3.307  60.480  80.671  0.00  0.00    +0.000 OA
ENDROOT
BRANCH   1  17
ATOM     12  C1  UNL     1       2.934  56.828  81.324  0.00  0.00    +0.000 A 
ATOM     13  C2  UNL     1       2.306  55.718  80.750  0.00  0.00    +0.000 A 
ATOM     14  C3  UNL     1       1.602  55.847  79.549  0.00  0.00    +0.000 A 
ATOM     15  C4  UNL     1       1.528  57.092  78.923  0.00  0.00    +0.000 A 
ATOM     16  C5  UNL     1       2.153  58.205  79.491  0.00  0.00    +0.000 A 
ATOM     17  C6  UNL     1       2.868  58.095  80.703  0.00  0.00    +0.000 A 
BRANCH  14  18
ATOM     18  O5  UNL     1       0.974  54.747  78.969  0.00  0.00    +0.000 OA
ATOM     19  H10 UNL     1      -0.033  54.709  78.859  0.00  0.00    +0.000 HD
ENDBRANCH  14  18
ENDBRANCH   1  17
BRANCH   8  20
ATOM     20  O3  UNL     1       3.731  65.161  80.010  0.00  0.00    +0.000 OA
ATOM     21  H8  UNL     1       4.062  66.078  80.286  0.00  0.00    +0.000 HD
ENDBRANCH   8  20
BRANCH   6  22
ATOM     22  O4  UNL     1       6.045  63.168  83.707  0.00  0.00    +0.000 OA
ATOM     23  H9  UNL     1       6.842  63.781  83.741  0.00  0.00    +0.000 HD
ENDBRANCH   6  22
TORSDOF 4
ENDMDL
MODEL 6
REMARK VINA RESULT:      -4.5      1.599      6.703
REMARK  Name = .\Apigenin.pdb
REMARK  4 active torsions:
REMARK  status: ('A' for Active; 'I' for Inactive)
REMARK    1  A    between atoms: C3_3  and  O5_20
REMARK    2  A    between atoms: C6_6  and  C7_7
REMARK    3  A    between atoms: C11_12  and  O4_19
REMARK    4  A    between atoms: C13_14  and  O3_18
REMARK                            x       y       z     vdW  Elec       q    Type
REMARK                         _______ _______ _______ _____ _____    ______ ____
ROOT
ATOM      1  C7  UNL     1       2.690  60.006  80.464  0.00  0.00    +0.000 A 
ATOM      2  C8  UNL     1       1.963  60.972  79.750  0.00  0.00    +0.000 A 
ATOM      3  C9  UNL     1       2.183  62.329  79.994  0.00  0.00    +0.000 A 
ATOM      4  O1  UNL     1       1.511  63.161  79.333  0.00  0.00    +0.000 OA
ATOM      5  C10 UNL     1       3.136  62.729  80.961  0.00  0.00    +0.000 A 
ATOM      6  C11 UNL     1       3.450  64.084  81.299  0.00  0.00    +0.000 A 
ATOM      7  C12 UNL     1       4.417  64.344  82.278  0.00  0.00    +0.000 A 
ATOM      8  C13 UNL     1       5.084  63.305  82.930  0.00  0.00    +0.000 A 
ATOM      9  C14 UNL     1       4.787  61.984  82.609  0.00  0.00    +0.000 A 
ATOM     10  C15 UNL     1       3.828  61.689  81.638  0.00  0.00    +0.000 A 
ATOM     11  O2  UNL     1       3.579  60.413  81.366  0.00  0.00    +0.000 OA
ENDROOT
BRANCH   1  17
ATOM     12  C1  UNL     1       3.143  57.567  81.077  0.00  0.00    +0.000 A 
ATOM     13  C2  UNL     1       2.946  56.201  80.846  0.00  0.00    +0.000 A 
ATOM     14  C3  UNL     1       2.122  55.773  79.800  0.00  0.00    +0.000 A 
ATOM     15  C4  UNL     1       1.495  56.717  78.986  0.00  0.00    +0.000 A 
ATOM     16  C5  UNL     1       1.687  58.082  79.211  0.00  0.00    +0.000 A 
ATOM     17  C6  UNL     1       2.514  58.534  80.261  0.00  0.00    +0.000 A 
BRANCH  14  18
ATOM     18  O5  UNL     1       1.921  54.416  79.562  0.00  0.00    +0.000 OA
ATOM     19  H10 UNL     1       1.711  53.771  80.315  0.00  0.00    +0.000 HD
ENDBRANCH  14  18
ENDBRANCH   1  17
BRANCH   8  20
ATOM     20  O3  UNL     1       6.045  63.577  83.902  0.00  0.00    +0.000 OA
ATOM     21  H8  UNL     1       6.344  62.872  84.565  0.00  0.00    +0.000 HD
ENDBRANCH   8  20
BRANCH   6  22
ATOM     22  O4  UNL     1       2.852  65.207  80.718  0.00  0.00    +0.000 OA
ATOM     23  H9  UNL     1       2.096  65.748  81.102  0.00  0.00    +0.000 HD
ENDBRANCH   6  22
TORSDOF 4
ENDMDL
MODEL 7
REMARK VINA RESULT:      -3.8      2.166      6.467
REMARK  Name = .\Apigenin.pdb
REMARK  4 active torsions:
REMARK  status: ('A' for Active; 'I' for Inactive)
REMARK    1  A    between atoms: C3_3  and  O5_20
REMARK    2  A    between atoms: C6_6  and  C7_7
REMARK    3  A    between atoms: C11_12  and  O4_19
REMARK    4  A    between atoms: C13_14  and  O3_18
REMARK                            x       y       z     vdW  Elec       q    Type
REMARK                         _______ _______ _______ _____ _____    ______ ____
ROOT
ATOM      1  C7  UNL     1       4.198  59.433  81.788  0.00  0.00    +0.000 A 
ATOM      2  C8  UNL     1       4.924  60.633  81.852  0.00  0.00    +0.000 A 
ATOM      3  C9  UNL     1       4.386  61.802  81.312  0.00  0.00    +0.000 A 
ATOM      4  O1  UNL     1       5.070  62.854  81.390  0.00  0.00    +0.000 OA
ATOM      5  C10 UNL     1       3.110  61.776  80.700  0.00  0.00    +0.000 A 
ATOM      6  C11 UNL     1       2.454  62.905  80.112  0.00  0.00    +0.000 A 
ATOM      7  C12 UNL     1       1.188  62.743  79.537  0.00  0.00    +0.000 A 
ATOM      8  C13 UNL     1       0.550  61.501  79.527  0.00  0.00    +0.000 A 
ATOM      9  C14 UNL     1       1.179  60.397  80.095  0.00  0.00    +0.000 A 
ATOM     10  C15 UNL     1       2.443  60.523  80.677  0.00  0.00    +0.000 A 
ATOM     11  O2  UNL     1       3.002  59.441  81.207  0.00  0.00    +0.000 OA
ENDROOT
BRANCH   1  17
ATOM     12  C1  UNL     1       5.599  58.071  83.435  0.00  0.00    +0.000 A 
ATOM     13  C2  UNL     1       6.044  56.836  83.917  0.00  0.00    +0.000 A 
ATOM     14  C3  UNL     1       5.606  55.647  83.324  0.00  0.00    +0.000 A 
ATOM     15  C4  UNL     1       4.723  55.698  82.246  0.00  0.00    +0.000 A 
ATOM     16  C5  UNL     1       4.275  56.929  81.759  0.00  0.00    +0.000 A 
ATOM     17  C6  UNL     1       4.704  58.139  82.344  0.00  0.00    +0.000 A 
BRANCH  14  18
ATOM     18  O5  UNL     1       6.044  54.412  83.798  0.00  0.00    +0.000 OA
ATOM     19  H10 UNL     1       6.696  54.342  84.571  0.00  0.00    +0.000 HD
ENDBRANCH  14  18
ENDBRANCH   1  17
BRANCH   8  20
ATOM     20  O3  UNL     1      -0.710  61.354  78.951  0.00  0.00    +0.000 OA
ATOM     21  H8  UNL     1      -1.076  60.443  78.700  0.00  0.00    +0.000 HD
ENDBRANCH   8  20
BRANCH   6  22
ATOM     22  O4  UNL     1       2.989  64.197  80.061  0.00  0.00    +0.000 OA
ATOM     23  H9  UNL     1       3.770  64.542  80.593  0.00  0.00    +0.000 HD
ENDBRANCH   6  22
TORSDOF 4
ENDMDL
MODEL 8
REMARK VINA RESULT:      -3.7      2.070      6.994
REMARK  Name = .\Apigenin.pdb
REMARK  4 active torsions:
REMARK  status: ('A' for Active; 'I' for Inactive)
REMARK    1  A    between atoms: C3_3  and  O5_20
REMARK    2  A    between atoms: C6_6  and  C7_7
REMARK    3  A    between atoms: C11_12  and  O4_19
REMARK    4  A    between atoms: C13_14  and  O3_18
REMARK                            x       y       z     vdW  Elec       q    Type
REMARK                         _______ _______ _______ _____ _____    ______ ____
ROOT
ATOM      1  C7  UNL     1       2.708  59.746  80.200  0.00  0.00    +0.000 A 
ATOM      2  C8  UNL     1       3.485  59.296  81.279  0.00  0.00    +0.000 A 
ATOM      3  C9  UNL     1       4.056  60.218  82.158  0.00  0.00    +0.000 A 
ATOM      4  O1  UNL     1       4.744  59.773  83.111  0.00  0.00    +0.000 OA
ATOM      5  C10 UNL     1       3.853  61.605  81.959  0.00  0.00    +0.000 A 
ATOM      6  C11 UNL     1       4.384  62.644  82.788  0.00  0.00    +0.000 A 
ATOM      7  C12 UNL     1       4.106  63.981  82.479  0.00  0.00    +0.000 A 
ATOM      8  C13 UNL     1       3.319  64.321  81.378  0.00  0.00    +0.000 A 
ATOM      9  C14 UNL     1       2.797  63.319  80.565  0.00  0.00    +0.000 A 
ATOM     10  C15 UNL     1       3.055  61.975  80.844  0.00  0.00    +0.000 A 
ATOM     11  O2  UNL     1       2.535  61.054  80.039  0.00  0.00    +0.000 OA
ENDROOT
BRANCH   1  17
ATOM     12  C1  UNL     1       2.015  57.422  79.395  0.00  0.00    +0.000 A 
ATOM     13  C2  UNL     1       1.398  56.601  78.445  0.00  0.00    +0.000 A 
ATOM     14  C3  UNL     1       0.819  57.157  77.300  0.00  0.00    +0.000 A 
ATOM     15  C4  UNL     1       0.858  58.539  77.109  0.00  0.00    +0.000 A 
ATOM     16  C5  UNL     1       1.472  59.364  78.054  0.00  0.00    +0.000 A 
ATOM     17  C6  UNL     1       2.062  58.823  79.216  0.00  0.00    +0.000 A 
BRANCH  14  18
ATOM     18  O5  UNL     1       0.204  56.348  76.348  0.00  0.00    +0.000 OA
ATOM     19  H10 UNL     1      -0.696  55.915  76.523  0.00  0.00    +0.000 HD
ENDBRANCH  14  18
ENDBRANCH   1  17
BRANCH   8  20
ATOM     20  O3  UNL     1       3.050  65.656  81.082  0.00  0.00    +0.000 OA
ATOM     21  H8  UNL     1       2.737  66.305  81.794  0.00  0.00    +0.000 HD
ENDBRANCH   8  20
BRANCH   6  22
ATOM     22  O4  UNL     1       5.184  62.430  83.916  0.00  0.00    +0.000 OA
ATOM     23  H9  UNL     1       5.102  62.897  84.804  0.00  0.00    +0.000 HD
ENDBRANCH   6  22
TORSDOF 4
ENDMDL
