MODEL 1
REMARK VINA RESULT:      -6.1      0.000      0.000
REMARK  Name = .\Apigenin.pdb
REMARK  4 active torsions:
REMARK  status: ('A' for Active; 'I' for Inactive)
REMARK    1  A    between atoms: C3_3  and  O5_20
REMARK    2  A    between atoms: C6_6  and  C7_7
REMARK    3  A    between atoms: C11_12  and  O4_19
REMARK    4  A    between atoms: C13_14  and  O3_18
REMARK                            x       y       z     vdW  Elec       q    Type
REMARK                         _______ _______ _______ _____ _____    ______ ____
ROOT
ATOM      1  C7  UNL     1      -2.985  67.846  17.635  0.00  0.00    +0.000 A 
ATOM      2  C8  UNL     1      -2.252  67.753  16.442  0.00  0.00    +0.000 A 
ATOM      3  C9  UNL     1      -2.754  67.007  15.374  0.00  0.00    +0.000 A 
ATOM      4  O1  UNL     1      -2.066  66.948  14.323  0.00  0.00    +0.000 OA
ATOM      5  C10 UNL     1      -4.000  66.345  15.497  0.00  0.00    +0.000 A 
ATOM      6  C11 UNL     1      -4.617  65.552  14.476  0.00  0.00    +0.000 A 
ATOM      7  C12 UNL     1      -5.856  64.950  14.728  0.00  0.00    +0.000 A 
ATOM      8  C13 UNL     1      -6.503  65.108  15.955  0.00  0.00    +0.000 A 
ATOM      9  C14 UNL     1      -5.911  65.876  16.953  0.00  0.00    +0.000 A 
ATOM     10  C15 UNL     1      -4.676  66.491  16.737  0.00  0.00    +0.000 A 
ATOM     11  O2  UNL     1      -4.152  67.214  17.720  0.00  0.00    +0.000 OA
ENDROOT
BRANCH   1  17
ATOM     12  C1  UNL     1      -1.320  69.377  18.825  0.00  0.00    +0.000 A 
ATOM     13  C2  UNL     1      -0.926  70.089  19.962  0.00  0.00    +0.000 A 
ATOM     14  C3  UNL     1      -1.714  70.069  21.118  0.00  0.00    +0.000 A 
ATOM     15  C4  UNL     1      -2.898  69.332  21.131  0.00  0.00    +0.000 A 
ATOM     16  C5  UNL     1      -3.298  68.618  19.999  0.00  0.00    +0.000 A 
ATOM     17  C6  UNL     1      -2.517  68.626  18.823  0.00  0.00    +0.000 A 
BRANCH  14  18
ATOM     18  O5  UNL     1      -1.329  70.774  22.255  0.00  0.00    +0.000 OA
ATOM     19  H10 UNL     1      -0.840  70.322  23.019  0.00  0.00    +0.000 HD
ENDBRANCH  14  18
ENDBRANCH   1  17
BRANCH   8  20
ATOM     20  O3  UNL     1      -7.735  64.504  16.192  0.00  0.00    +0.000 OA
ATOM     21  H8  UNL     1      -8.561  65.048  16.411  0.00  0.00    +0.000 HD
ENDBRANCH   8  20
BRANCH   6  22
ATOM     22  O4  UNL     1      -4.070  65.321  13.210  0.00  0.00    +0.000 OA
ATOM     23  H9  UNL     1      -4.575  65.060  12.379  0.00  0.00    +0.000 HD
ENDBRANCH   6  22
TORSDOF 4
ENDMDL
MODEL 2
REMARK VINA RESULT:      -5.6      1.913      2.904
REMARK  Name = .\Apigenin.pdb
REMARK  4 active torsions:
REMARK  status: ('A' for Active; 'I' for Inactive)
REMARK    1  A    between atoms: C3_3  and  O5_20
REMARK    2  A    between atoms: C6_6  and  C7_7
REMARK    3  A    between atoms: C11_12  and  O4_19
REMARK    4  A    between atoms: C13_14  and  O3_18
REMARK                            x       y       z     vdW  Elec       q    Type
REMARK                         _______ _______ _______ _____ _____    ______ ____
ROOT
ATOM      1  C7  UNL     1      -2.747  67.930  18.450  0.00  0.00    +0.000 A 
ATOM      2  C8  UNL     1      -3.955  67.999  17.738  0.00  0.00    +0.000 A 
ATOM      3  C9  UNL     1      -4.235  67.056  16.749  0.00  0.00    +0.000 A 
ATOM      4  O1  UNL     1      -5.328  67.154  16.135  0.00  0.00    +0.000 OA
ATOM      5  C10 UNL     1      -3.300  66.031  16.463  0.00  0.00    +0.000 A 
ATOM      6  C11 UNL     1      -3.472  65.009  15.475  0.00  0.00    +0.000 A 
ATOM      7  C12 UNL     1      -2.467  64.052  15.293  0.00  0.00    +0.000 A 
ATOM      8  C13 UNL     1      -1.299  64.073  16.058  0.00  0.00    +0.000 A 
ATOM      9  C14 UNL     1      -1.122  65.062  17.021  0.00  0.00    +0.000 A 
ATOM     10  C15 UNL     1      -2.104  66.033  17.229  0.00  0.00    +0.000 A 
ATOM     11  O2  UNL     1      -1.890  66.956  18.160  0.00  0.00    +0.000 OA
ENDROOT
BRANCH   1  17
ATOM     12  C1  UNL     1      -1.157  69.620  19.521  0.00  0.00    +0.000 A 
ATOM     13  C2  UNL     1      -0.854  70.517  20.550  0.00  0.00    +0.000 A 
ATOM     14  C3  UNL     1      -1.754  70.717  21.601  0.00  0.00    +0.000 A 
ATOM     15  C4  UNL     1      -2.960  70.015  21.619  0.00  0.00    +0.000 A 
ATOM     16  C5  UNL     1      -3.268  69.117  20.594  0.00  0.00    +0.000 A 
ATOM     17  C6  UNL     1      -2.374  68.902  19.525  0.00  0.00    +0.000 A 
BRANCH  14  18
ATOM     18  O5  UNL     1      -1.461  71.608  22.630  0.00  0.00    +0.000 OA
ATOM     19  H10 UNL     1      -0.682  72.254  22.566  0.00  0.00    +0.000 HD
ENDBRANCH  14  18
ENDBRANCH   1  17
BRANCH   8  20
ATOM     20  O3  UNL     1      -0.307  63.114  15.866  0.00  0.00    +0.000 OA
ATOM     21  H8  UNL     1      -0.308  62.503  15.059  0.00  0.00    +0.000 HD
ENDBRANCH   8  20
BRANCH   6  22
ATOM     22  O4  UNL     1      -4.594  64.883  14.649  0.00  0.00    +0.000 OA
ATOM     23  H9  UNL     1      -4.958  65.582  14.023  0.00  0.00    +0.000 HD
ENDBRANCH   6  22
TORSDOF 4
ENDMDL
MODEL 3
REMARK VINA RESULT:      -5.6      1.384      2.973
REMARK  Name = .\Apigenin.pdb
REMARK  4 active torsions:
REMARK  status: ('A' for Active; 'I' for Inactive)
REMARK    1  A    between atoms: C3_3  and  O5_20
REMARK    2  A    between atoms: C6_6  and  C7_7
REMARK    3  A    between atoms: C11_12  and  O4_19
REMARK    4  A    between atoms: C13_14  and  O3_18
REMARK                            x       y       z     vdW  Elec       q    Type
REMARK                         _______ _______ _______ _____ _____    ______ ____
ROOT
ATOM      1  C7  UNL     1      -3.277  68.167  17.983  0.00  0.00    +0.000 A 
ATOM      2  C8  UNL     1      -4.658  68.010  17.788  0.00  0.00    +0.000 A 
ATOM      3  C9  UNL     1      -5.128  67.303  16.680  0.00  0.00    +0.000 A 
ATOM      4  O1  UNL     1      -6.372  67.186  16.542  0.00  0.00    +0.000 OA
ATOM      5  C10 UNL     1      -4.212  66.747  15.754  0.00  0.00    +0.000 A 
ATOM      6  C11 UNL     1      -4.570  66.005  14.584  0.00  0.00    +0.000 A 
ATOM      7  C12 UNL     1      -3.562  65.507  13.749  0.00  0.00    +0.000 A 
ATOM      8  C13 UNL     1      -2.212  65.721  14.036  0.00  0.00    +0.000 A 
ATOM      9  C14 UNL     1      -1.854  66.441  15.172  0.00  0.00    +0.000 A 
ATOM     10  C15 UNL     1      -2.833  66.952  16.026  0.00  0.00    +0.000 A 
ATOM     11  O2  UNL     1      -2.441  67.633  17.097  0.00  0.00    +0.000 OA
ENDROOT
BRANCH   1  17
ATOM     12  C1  UNL     1      -3.370  69.060  20.376  0.00  0.00    +0.000 A 
ATOM     13  C2  UNL     1      -2.781  69.763  21.432  0.00  0.00    +0.000 A 
ATOM     14  C3  UNL     1      -1.511  70.329  21.283  0.00  0.00    +0.000 A 
ATOM     15  C4  UNL     1      -0.832  70.190  20.073  0.00  0.00    +0.000 A 
ATOM     16  C5  UNL     1      -1.414  69.488  19.014  0.00  0.00    +0.000 A 
ATOM     17  C6  UNL     1      -2.694  68.909  19.144  0.00  0.00    +0.000 A 
BRANCH  14  18
ATOM     18  O5  UNL     1      -0.918  71.032  22.329  0.00  0.00    +0.000 OA
ATOM     19  H10 UNL     1       0.087  71.154  22.382  0.00  0.00    +0.000 HD
ENDBRANCH  14  18
ENDBRANCH   1  17
BRANCH   8  20
ATOM     20  O3  UNL     1      -1.220  65.220  13.197  0.00  0.00    +0.000 OA
ATOM     21  H8  UNL     1      -1.311  65.250  12.189  0.00  0.00    +0.000 HD
ENDBRANCH   8  20
BRANCH   6  22
ATOM     22  O4  UNL     1      -5.883  65.725  14.191  0.00  0.00    +0.000 OA
ATOM     23  H9  UNL     1      -6.432  64.927  14.464  0.00  0.00    +0.000 HD
ENDBRANCH   6  22
TORSDOF 4
ENDMDL
MODEL 4
REMARK VINA RESULT:      -5.5      1.506      6.556
REMARK  Name = .\Apigenin.pdb
REMARK  4 active torsions:
REMARK  status: ('A' for Active; 'I' for Inactive)
REMARK    1  A    between atoms: C3_3  and  O5_20
REMARK    2  A    between atoms: C6_6  and  C7_7
REMARK    3  A    between atoms: C11_12  and  O4_19
REMARK    4  A    between atoms: C13_14  and  O3_18
REMARK                            x       y       z     vdW  Elec       q    Type
REMARK                         _______ _______ _______ _____ _____    ______ ____
ROOT
ATOM      1  C7  UNL     1      -3.600  67.072  17.061  0.00  0.00    +0.000 A 
ATOM      2  C8  UNL     1      -2.540  67.467  16.229  0.00  0.00    +0.000 A 
ATOM      3  C9  UNL     1      -1.552  68.321  16.720  0.00  0.00    +0.000 A 
ATOM      4  O1  UNL     1      -0.621  68.651  15.942  0.00  0.00    +0.000 OA
ATOM      5  C10 UNL     1      -1.620  68.790  18.054  0.00  0.00    +0.000 A 
ATOM      6  C11 UNL     1      -0.671  69.668  18.670  0.00  0.00    +0.000 A 
ATOM      7  C12 UNL     1      -0.857  70.057  20.003  0.00  0.00    +0.000 A 
ATOM      8  C13 UNL     1      -1.950  69.604  20.744  0.00  0.00    +0.000 A 
ATOM      9  C14 UNL     1      -2.879  68.751  20.154  0.00  0.00    +0.000 A 
ATOM     10  C15 UNL     1      -2.725  68.344  18.828  0.00  0.00    +0.000 A 
ATOM     11  O2  UNL     1      -3.637  67.528  18.309  0.00  0.00    +0.000 OA
ENDROOT
BRANCH   1  17
ATOM     12  C1  UNL     1      -4.451  64.894  16.029  0.00  0.00    +0.000 A 
ATOM     13  C2  UNL     1      -5.512  64.077  15.624  0.00  0.00    +0.000 A 
ATOM     14  C3  UNL     1      -6.834  64.501  15.791  0.00  0.00    +0.000 A 
ATOM     15  C4  UNL     1      -7.092  65.747  16.364  0.00  0.00    +0.000 A 
ATOM     16  C5  UNL     1      -6.037  66.568  16.770  0.00  0.00    +0.000 A 
ATOM     17  C6  UNL     1      -4.696  66.158  16.611  0.00  0.00    +0.000 A 
BRANCH  14  18
ATOM     18  O5  UNL     1      -7.896  63.694  15.391  0.00  0.00    +0.000 OA
ATOM     19  H10 UNL     1      -8.154  62.862  15.909  0.00  0.00    +0.000 HD
ENDBRANCH  14  18
ENDBRANCH   1  17
BRANCH   8  20
ATOM     20  O3  UNL     1      -2.123  69.998  22.068  0.00  0.00    +0.000 OA
ATOM     21  H8  UNL     1      -2.885  69.643  22.633  0.00  0.00    +0.000 HD
ENDBRANCH   8  20
BRANCH   6  22
ATOM     22  O4  UNL     1       0.461  70.187  18.034  0.00  0.00    +0.000 OA
ATOM     23  H9  UNL     1       1.173  70.761  18.454  0.00  0.00    +0.000 HD
ENDBRANCH   6  22
TORSDOF 4
ENDMDL
MODEL 5
REMARK VINA RESULT:      -5.5      1.518      6.693
REMARK  Name = .\Apigenin.pdb
REMARK  4 active torsions:
REMARK  status: ('A' for Active; 'I' for Inactive)
REMARK    1  A    between atoms: C3_3  and  O5_20
REMARK    2  A    between atoms: C6_6  and  C7_7
REMARK    3  A    between atoms: C11_12  and  O4_19
REMARK    4  A    between atoms: C13_14  and  O3_18
REMARK                            x       y       z     vdW  Elec       q    Type
REMARK                         _______ _______ _______ _____ _____    ______ ____
ROOT
ATOM      1  C7  UNL     1      -3.172  67.339  17.351  0.00  0.00    +0.000 A 
ATOM      2  C8  UNL     1      -2.003  67.659  16.643  0.00  0.00    +0.000 A 
ATOM      3  C9  UNL     1      -1.058  68.515  17.211  0.00  0.00    +0.000 A 
ATOM      4  O1  UNL     1      -0.025  68.776  16.543  0.00  0.00    +0.000 OA
ATOM      5  C10 UNL     1      -1.280  69.060  18.499  0.00  0.00    +0.000 A 
ATOM      6  C11 UNL     1      -0.389  69.946  19.184  0.00  0.00    +0.000 A 
ATOM      7  C12 UNL     1      -0.729  70.414  20.460  0.00  0.00    +0.000 A 
ATOM      8  C13 UNL     1      -1.922  70.032  21.077  0.00  0.00    +0.000 A 
ATOM      9  C14 UNL     1      -2.795  69.171  20.419  0.00  0.00    +0.000 A 
ATOM     10  C15 UNL     1      -2.487  68.686  19.146  0.00  0.00    +0.000 A 
ATOM     11  O2  UNL     1      -3.352  67.866  18.559  0.00  0.00    +0.000 OA
ENDROOT
BRANCH   1  17
ATOM     12  C1  UNL     1      -5.611  66.721  16.906  0.00  0.00    +0.000 A 
ATOM     13  C2  UNL     1      -6.564  65.838  16.387  0.00  0.00    +0.000 A 
ATOM     14  C3  UNL     1      -6.162  64.650  15.767  0.00  0.00    +0.000 A 
ATOM     15  C4  UNL     1      -4.803  64.348  15.670  0.00  0.00    +0.000 A 
ATOM     16  C5  UNL     1      -3.847  65.226  16.186  0.00  0.00    +0.000 A 
ATOM     17  C6  UNL     1      -4.232  66.430  16.813  0.00  0.00    +0.000 A 
BRANCH  14  18
ATOM     18  O5  UNL     1      -7.103  63.764  15.249  0.00  0.00    +0.000 OA
ATOM     19  H10 UNL     1      -8.053  63.734  15.601  0.00  0.00    +0.000 HD
ENDBRANCH  14  18
ENDBRANCH   1  17
BRANCH   8  20
ATOM     20  O3  UNL     1      -2.248  70.504  22.346  0.00  0.00    +0.000 OA
ATOM     21  H8  UNL     1      -3.123  70.982  22.526  0.00  0.00    +0.000 HD
ENDBRANCH   8  20
BRANCH   6  22
ATOM     22  O4  UNL     1       0.832  70.399  18.672  0.00  0.00    +0.000 OA
ATOM     23  H9  UNL     1       0.960  70.996  17.872  0.00  0.00    +0.000 HD
ENDBRANCH   6  22
TORSDOF 4
ENDMDL
MODEL 6
REMARK VINA RESULT:      -5.4      2.613      3.854
REMARK  Name = .\Apigenin.pdb
REMARK  4 active torsions:
REMARK  status: ('A' for Active; 'I' for Inactive)
REMARK    1  A    between atoms: C3_3  and  O5_20
REMARK    2  A    between atoms: C6_6  and  C7_7
REMARK    3  A    between atoms: C11_12  and  O4_19
REMARK    4  A    between atoms: C13_14  and  O3_18
REMARK                            x       y       z     vdW  Elec       q    Type
REMARK                         _______ _______ _______ _____ _____    ______ ____
ROOT
ATOM      1  C7  UNL     1      -1.792  68.068  18.047  0.00  0.00    +0.000 A 
ATOM      2  C8  UNL     1      -2.241  66.739  17.985  0.00  0.00    +0.000 A 
ATOM      3  C9  UNL     1      -2.105  66.012  16.801  0.00  0.00    +0.000 A 
ATOM      4  O1  UNL     1      -2.521  64.826  16.788  0.00  0.00    +0.000 OA
ATOM      5  C10 UNL     1      -1.516  66.617  15.664  0.00  0.00    +0.000 A 
ATOM      6  C11 UNL     1      -1.323  65.978  14.397  0.00  0.00    +0.000 A 
ATOM      7  C12 UNL     1      -0.725  66.691  13.351  0.00  0.00    +0.000 A 
ATOM      8  C13 UNL     1      -0.313  68.014  13.519  0.00  0.00    +0.000 A 
ATOM      9  C14 UNL     1      -0.497  68.644  14.746  0.00  0.00    +0.000 A 
ATOM     10  C15 UNL     1      -1.089  67.963  15.811  0.00  0.00    +0.000 A 
ATOM     11  O2  UNL     1      -1.243  68.607  16.963  0.00  0.00    +0.000 OA
ENDROOT
BRANCH   1  17
ATOM     12  C1  UNL     1      -0.939  69.888  19.625  0.00  0.00    +0.000 A 
ATOM     13  C2  UNL     1      -1.086  70.652  20.787  0.00  0.00    +0.000 A 
ATOM     14  C3  UNL     1      -2.189  70.459  21.625  0.00  0.00    +0.000 A 
ATOM     15  C4  UNL     1      -3.146  69.499  21.295  0.00  0.00    +0.000 A 
ATOM     16  C5  UNL     1      -3.005  68.732  20.136  0.00  0.00    +0.000 A 
ATOM     17  C6  UNL     1      -1.900  68.912  19.277  0.00  0.00    +0.000 A 
BRANCH  14  18
ATOM     18  O5  UNL     1      -2.343  71.215  22.785  0.00  0.00    +0.000 OA
ATOM     19  H10 UNL     1      -2.370  72.228  22.757  0.00  0.00    +0.000 HD
ENDBRANCH  14  18
ENDBRANCH   1  17
BRANCH   8  20
ATOM     20  O3  UNL     1       0.280  68.712  12.469  0.00  0.00    +0.000 OA
ATOM     21  H8  UNL     1       0.858  69.528  12.633  0.00  0.00    +0.000 HD
ENDBRANCH   8  20
BRANCH   6  22
ATOM     22  O4  UNL     1      -1.693  64.660  14.107  0.00  0.00    +0.000 OA
ATOM     23  H9  UNL     1      -1.484  64.153  13.263  0.00  0.00    +0.000 HD
ENDBRANCH   6  22
TORSDOF 4
ENDMDL
MODEL 7
REMARK VINA RESULT:      -5.3      2.080      7.154
REMARK  Name = .\Apigenin.pdb
REMARK  4 active torsions:
REMARK  status: ('A' for Active; 'I' for Inactive)
REMARK    1  A    between atoms: C3_3  and  O5_20
REMARK    2  A    between atoms: C6_6  and  C7_7
REMARK    3  A    between atoms: C11_12  and  O4_19
REMARK    4  A    between atoms: C13_14  and  O3_18
REMARK                            x       y       z     vdW  Elec       q    Type
REMARK                         _______ _______ _______ _____ _____    ______ ____
ROOT
ATOM      1  C7  UNL     1      -2.812  68.639  19.063  0.00  0.00    +0.000 A 
ATOM      2  C8  UNL     1      -1.512  69.086  19.348  0.00  0.00    +0.000 A 
ATOM      3  C9  UNL     1      -1.314  70.097  20.289  0.00  0.00    +0.000 A 
ATOM      4  O1  UNL     1      -0.134  70.468  20.514  0.00  0.00    +0.000 OA
ATOM      5  C10 UNL     1      -2.424  70.672  20.954  0.00  0.00    +0.000 A 
ATOM      6  C11 UNL     1      -2.351  71.712  21.935  0.00  0.00    +0.000 A 
ATOM      7  C12 UNL     1      -3.529  72.193  22.518  0.00  0.00    +0.000 A 
ATOM      8  C13 UNL     1      -4.777  71.677  22.162  0.00  0.00    +0.000 A 
ATOM      9  C14 UNL     1      -4.859  70.665  21.209  0.00  0.00    +0.000 A 
ATOM     10  C15 UNL     1      -3.704  70.163  20.607  0.00  0.00    +0.000 A 
ATOM     11  O2  UNL     1      -3.834  69.197  19.704  0.00  0.00    +0.000 OA
ENDROOT
BRANCH   1  17
ATOM     12  C1  UNL     1      -4.326  67.483  17.359  0.00  0.00    +0.000 A 
ATOM     13  C2  UNL     1      -4.553  66.453  16.441  0.00  0.00    +0.000 A 
ATOM     14  C3  UNL     1      -3.574  65.481  16.212  0.00  0.00    +0.000 A 
ATOM     15  C4  UNL     1      -2.366  65.543  16.906  0.00  0.00    +0.000 A 
ATOM     16  C5  UNL     1      -2.132  66.569  17.825  0.00  0.00    +0.000 A 
ATOM     17  C6  UNL     1      -3.107  67.559  18.070  0.00  0.00    +0.000 A 
BRANCH  14  18
ATOM     18  O5  UNL     1      -3.792  64.452  15.299  0.00  0.00    +0.000 OA
ATOM     19  H10 UNL     1      -3.385  64.472  14.371  0.00  0.00    +0.000 HD
ENDBRANCH  14  18
ENDBRANCH   1  17
BRANCH   8  20
ATOM     20  O3  UNL     1      -5.942  72.164  22.750  0.00  0.00    +0.000 OA
ATOM     21  H8  UNL     1      -6.854  71.802  22.500  0.00  0.00    +0.000 HD
ENDBRANCH   8  20
BRANCH   6  22
ATOM     22  O4  UNL     1      -1.164  72.308  22.373  0.00  0.00    +0.000 OA
ATOM     23  H9  UNL     1      -0.305  72.383  21.854  0.00  0.00    +0.000 HD
ENDBRANCH   6  22
TORSDOF 4
ENDMDL
MODEL 8
REMARK VINA RESULT:      -5.0      2.403      6.768
REMARK  Name = .\Apigenin.pdb
REMARK  4 active torsions:
REMARK  status: ('A' for Active; 'I' for Inactive)
REMARK    1  A    between atoms: C3_3  and  O5_20
REMARK    2  A    between atoms: C6_6  and  C7_7
REMARK    3  A    between atoms: C11_12  and  O4_19
REMARK    4  A    between atoms: C13_14  and  O3_18
REMARK                            x       y       z     vdW  Elec       q    Type
REMARK                         _______ _______ _______ _____ _____    ______ ____
ROOT
ATOM      1  C7  UNL     1      -3.536  67.871  17.986  0.00  0.00    +0.000 A 
ATOM      2  C8  UNL     1      -4.732  68.514  17.633  0.00  0.00    +0.000 A 
ATOM      3  C9  UNL     1      -5.180  69.608  18.375  0.00  0.00    +0.000 A 
ATOM      4  O1  UNL     1      -6.257  70.155  18.025  0.00  0.00    +0.000 OA
ATOM      5  C10 UNL     1      -4.428  70.066  19.484  0.00  0.00    +0.000 A 
ATOM      6  C11 UNL     1      -4.782  71.173  20.320  0.00  0.00    +0.000 A 
ATOM      7  C12 UNL     1      -3.948  71.523  21.389  0.00  0.00    +0.000 A 
ATOM      8  C13 UNL     1      -2.774  70.814  21.654  0.00  0.00    +0.000 A 
ATOM      9  C14 UNL     1      -2.421  69.736  20.847  0.00  0.00    +0.000 A 
ATOM     10  C15 UNL     1      -3.231  69.360  19.774  0.00  0.00    +0.000 A 
ATOM     11  O2  UNL     1      -2.852  68.324  19.032  0.00  0.00    +0.000 OA
ENDROOT
BRANCH   1  17
ATOM     12  C1  UNL     1      -1.921  65.907  17.729  0.00  0.00    +0.000 A 
ATOM     13  C2  UNL     1      -1.445  64.817  16.994  0.00  0.00    +0.000 A 
ATOM     14  C3  UNL     1      -2.020  64.489  15.762  0.00  0.00    +0.000 A 
ATOM     15  C4  UNL     1      -3.074  65.258  15.267  0.00  0.00    +0.000 A 
ATOM     16  C5  UNL     1      -3.555  66.349  15.996  0.00  0.00    +0.000 A 
ATOM     17  C6  UNL     1      -2.988  66.695  17.241  0.00  0.00    +0.000 A 
BRANCH  14  18
ATOM     18  O5  UNL     1      -1.552  63.406  15.022  0.00  0.00    +0.000 OA
ATOM     19  H10 UNL     1      -0.836  63.518  14.314  0.00  0.00    +0.000 HD
ENDBRANCH  14  18
ENDBRANCH   1  17
BRANCH   8  20
ATOM     20  O3  UNL     1      -1.953  71.173  22.720  0.00  0.00    +0.000 OA
ATOM     21  H8  UNL     1      -1.913  72.126  23.062  0.00  0.00    +0.000 HD
ENDBRANCH   8  20
BRANCH   6  22
ATOM     22  O4  UNL     1      -5.928  71.959  20.156  0.00  0.00    +0.000 OA
ATOM     23  H9  UNL     1      -6.501  72.340  20.890  0.00  0.00    +0.000 HD
ENDBRANCH   6  22
TORSDOF 4
ENDMDL
MODEL 9
REMARK VINA RESULT:      -4.9      2.740      7.545
REMARK  Name = .\Apigenin.pdb
REMARK  4 active torsions:
REMARK  status: ('A' for Active; 'I' for Inactive)
REMARK    1  A    between atoms: C3_3  and  O5_20
REMARK    2  A    between atoms: C6_6  and  C7_7
REMARK    3  A    between atoms: C11_12  and  O4_19
REMARK    4  A    between atoms: C13_14  and  O3_18
REMARK                            x       y       z     vdW  Elec       q    Type
REMARK                         _______ _______ _______ _____ _____    ______ ____
ROOT
ATOM      1  C7  UNL     1      -2.484  68.571  18.589  0.00  0.00    +0.000 A 
ATOM      2  C8  UNL     1      -3.743  68.991  19.046  0.00  0.00    +0.000 A 
ATOM      3  C9  UNL     1      -3.832  69.974  20.033  0.00  0.00    +0.000 A 
ATOM      4  O1  UNL     1      -4.979  70.321  20.415  0.00  0.00    +0.000 OA
ATOM      5  C10 UNL     1      -2.654  70.543  20.573  0.00  0.00    +0.000 A 
ATOM      6  C11 UNL     1      -2.616  71.554  21.586  0.00  0.00    +0.000 A 
ATOM      7  C12 UNL     1      -1.379  72.034  22.034  0.00  0.00    +0.000 A 
ATOM      8  C13 UNL     1      -0.180  71.546  21.510  0.00  0.00    +0.000 A 
ATOM      9  C14 UNL     1      -0.206  70.563  20.525  0.00  0.00    +0.000 A 
ATOM     10  C15 UNL     1      -1.422  70.062  20.056  0.00  0.00    +0.000 A 
ATOM     11  O2  UNL     1      -1.396  69.125  19.114  0.00  0.00    +0.000 OA
ENDROOT
BRANCH   1  17
ATOM     12  C1  UNL     1      -2.089  66.161  17.834  0.00  0.00    +0.000 A 
ATOM     13  C2  UNL     1      -1.926  65.222  16.811  0.00  0.00    +0.000 A 
ATOM     14  C3  UNL     1      -1.973  65.621  15.471  0.00  0.00    +0.000 A 
ATOM     15  C4  UNL     1      -2.184  66.964  15.159  0.00  0.00    +0.000 A 
ATOM     16  C5  UNL     1      -2.347  67.908  16.176  0.00  0.00    +0.000 A 
ATOM     17  C6  UNL     1      -2.304  67.525  17.534  0.00  0.00    +0.000 A 
BRANCH  14  18
ATOM     18  O5  UNL     1      -1.811  64.692  14.446  0.00  0.00    +0.000 OA
ATOM     19  H10 UNL     1      -1.523  64.975  13.516  0.00  0.00    +0.000 HD
ENDBRANCH  14  18
ENDBRANCH   1  17
BRANCH   8  20
ATOM     20  O3  UNL     1       1.044  72.032  21.964  0.00  0.00    +0.000 OA
ATOM     21  H8  UNL     1       1.844  71.423  22.089  0.00  0.00    +0.000 HD
ENDBRANCH   8  20
BRANCH   6  22
ATOM     22  O4  UNL     1      -3.745  72.121  22.187  0.00  0.00    +0.000 OA
ATOM     23  H9  UNL     1      -4.006  72.049  23.156  0.00  0.00    +0.000 HD
ENDBRANCH   6  22
TORSDOF 4
ENDMDL
