MODEL 1
REMARK VINA RESULT:      -6.2      0.000      0.000
REMARK  Name = .\Apigenin.pdb
REMARK  4 active torsions:
REMARK  status: ('A' for Active; 'I' for Inactive)
REMARK    1  A    between atoms: C3_3  and  O5_20
REMARK    2  A    between atoms: C6_6  and  C7_7
REMARK    3  A    between atoms: C11_12  and  O4_19
REMARK    4  A    between atoms: C13_14  and  O3_18
REMARK                            x       y       z     vdW  Elec       q    Type
REMARK                         _______ _______ _______ _____ _____    ______ ____
ROOT
ATOM      1  C7  UNL     1      -1.481  92.289 113.499  0.00  0.00    +0.000 A 
ATOM      2  C8  UNL     1      -2.841  92.571 113.299  0.00  0.00    +0.000 A 
ATOM      3  C9  UNL     1      -3.554  93.281 114.266  0.00  0.00    +0.000 A 
ATOM      4  O1  UNL     1      -4.770  93.512 114.048  0.00  0.00    +0.000 OA
ATOM      5  C10 UNL     1      -2.905  93.715 115.448  0.00  0.00    +0.000 A 
ATOM      6  C11 UNL     1      -3.526  94.448 116.509  0.00  0.00    +0.000 A 
ATOM      7  C12 UNL     1      -2.768  94.817 117.627  0.00  0.00    +0.000 A 
ATOM      8  C13 UNL     1      -1.415  94.485 117.726  0.00  0.00    +0.000 A 
ATOM      9  C14 UNL     1      -0.802  93.773 116.700  0.00  0.00    +0.000 A 
ATOM     10  C15 UNL     1      -1.529  93.388 115.571  0.00  0.00    +0.000 A 
ATOM     11  O2  UNL     1      -0.899  92.709 114.618  0.00  0.00    +0.000 OA
ENDROOT
BRANCH   1  17
ATOM     12  C1  UNL     1      -0.009  92.155 111.414  0.00  0.00    +0.000 A 
ATOM     13  C2  UNL     1       0.759  91.406 110.518  0.00  0.00    +0.000 A 
ATOM     14  C3  UNL     1       0.907  90.027 110.695  0.00  0.00    +0.000 A 
ATOM     15  C4  UNL     1       0.282  89.399 111.774  0.00  0.00    +0.000 A 
ATOM     16  C5  UNL     1      -0.487  90.142 112.673  0.00  0.00    +0.000 A 
ATOM     17  C6  UNL     1      -0.648  91.535 112.511  0.00  0.00    +0.000 A 
BRANCH  14  18
ATOM     18  O5  UNL     1       1.670  89.272 109.807  0.00  0.00    +0.000 OA
ATOM     19  H10 UNL     1       2.146  88.428 110.103  0.00  0.00    +0.000 HD
ENDBRANCH  14  18
ENDBRANCH   1  17
BRANCH   8  20
ATOM     20  O3  UNL     1      -0.672  94.859 118.843  0.00  0.00    +0.000 OA
ATOM     21  H8  UNL     1      -0.502  95.832 119.067  0.00  0.00    +0.000 HD
ENDBRANCH   8  20
BRANCH   6  22
ATOM     22  O4  UNL     1      -4.870  94.838 116.525  0.00  0.00    +0.000 OA
ATOM     23  H9  UNL     1      -5.640  94.314 116.904  0.00  0.00    +0.000 HD
ENDBRANCH   6  22
TORSDOF 4
ENDMDL
MODEL 2
REMARK VINA RESULT:      -5.1      1.087      1.683
REMARK  Name = .\Apigenin.pdb
REMARK  4 active torsions:
REMARK  status: ('A' for Active; 'I' for Inactive)
REMARK    1  A    between atoms: C3_3  and  O5_20
REMARK    2  A    between atoms: C6_6  and  C7_7
REMARK    3  A    between atoms: C11_12  and  O4_19
REMARK    4  A    between atoms: C13_14  and  O3_18
REMARK                            x       y       z     vdW  Elec       q    Type
REMARK                         _______ _______ _______ _____ _____    ______ ____
ROOT
ATOM      1  C7  UNL     1      -1.005  92.532 114.156  0.00  0.00    +0.000 A 
ATOM      2  C8  UNL     1      -2.333  92.977 114.253  0.00  0.00    +0.000 A 
ATOM      3  C9  UNL     1      -2.732  93.744 115.348  0.00  0.00    +0.000 A 
ATOM      4  O1  UNL     1      -3.930  94.121 115.397  0.00  0.00    +0.000 OA
ATOM      5  C10 UNL     1      -1.798  94.072 116.361  0.00  0.00    +0.000 A 
ATOM      6  C11 UNL     1      -2.085  94.849 117.528  0.00  0.00    +0.000 A 
ATOM      7  C12 UNL     1      -1.066  95.102 118.455  0.00  0.00    +0.000 A 
ATOM      8  C13 UNL     1       0.227  94.611 118.261  0.00  0.00    +0.000 A 
ATOM      9  C14 UNL     1       0.517  93.854 117.130  0.00  0.00    +0.000 A 
ATOM     10  C15 UNL     1      -0.476  93.583 116.186  0.00  0.00    +0.000 A 
ATOM     11  O2  UNL     1      -0.151  92.856 115.122  0.00  0.00    +0.000 OA
ENDROOT
BRANCH   1  17
ATOM     12  C1  UNL     1      -0.602  90.299 112.982  0.00  0.00    +0.000 A 
ATOM     13  C2  UNL     1      -0.113  89.572 111.891  0.00  0.00    +0.000 A 
ATOM     14  C3  UNL     1       0.486  90.233 110.814  0.00  0.00    +0.000 A 
ATOM     15  C4  UNL     1       0.595  91.624 110.832  0.00  0.00    +0.000 A 
ATOM     16  C5  UNL     1       0.109  92.355 111.919  0.00  0.00    +0.000 A 
ATOM     17  C6  UNL     1      -0.500  91.707 113.015  0.00  0.00    +0.000 A 
BRANCH  14  18
ATOM     18  O5  UNL     1       0.976  89.518 109.724  0.00  0.00    +0.000 OA
ATOM     19  H10 UNL     1       1.808  89.815 109.226  0.00  0.00    +0.000 HD
ENDBRANCH  14  18
ENDBRANCH   1  17
BRANCH   8  20
ATOM     20  O3  UNL     1       1.232  94.870 119.191  0.00  0.00    +0.000 OA
ATOM     21  H8  UNL     1       1.094  94.707 120.181  0.00  0.00    +0.000 HD
ENDBRANCH   8  20
BRANCH   6  22
ATOM     22  O4  UNL     1      -3.337  95.395 117.832  0.00  0.00    +0.000 OA
ATOM     23  H9  UNL     1      -3.535  96.361 118.031  0.00  0.00    +0.000 HD
ENDBRANCH   6  22
TORSDOF 4
ENDMDL
MODEL 3
REMARK VINA RESULT:      -4.9      1.384      2.992
REMARK  Name = .\Apigenin.pdb
REMARK  4 active torsions:
REMARK  status: ('A' for Active; 'I' for Inactive)
REMARK    1  A    between atoms: C3_3  and  O5_20
REMARK    2  A    between atoms: C6_6  and  C7_7
REMARK    3  A    between atoms: C11_12  and  O4_19
REMARK    4  A    between atoms: C13_14  and  O3_18
REMARK                            x       y       z     vdW  Elec       q    Type
REMARK                         _______ _______ _______ _____ _____    ______ ____
ROOT
ATOM      1  C7  UNL     1       0.079  92.924 114.532  0.00  0.00    +0.000 A 
ATOM      2  C8  UNL     1       0.986  93.376 115.503  0.00  0.00    +0.000 A 
ATOM      3  C9  UNL     1       0.514  93.978 116.671  0.00  0.00    +0.000 A 
ATOM      4  O1  UNL     1       1.360  94.369 117.514  0.00  0.00    +0.000 OA
ATOM      5  C10 UNL     1      -0.879  94.132 116.874  0.00  0.00    +0.000 A 
ATOM      6  C11 UNL     1      -1.483  94.731 118.025  0.00  0.00    +0.000 A 
ATOM      7  C12 UNL     1      -2.879  94.822 118.102  0.00  0.00    +0.000 A 
ATOM      8  C13 UNL     1      -3.693  94.338 117.076  0.00  0.00    +0.000 A 
ATOM      9  C14 UNL     1      -3.115  93.754 115.952  0.00  0.00    +0.000 A 
ATOM     10  C15 UNL     1      -1.728  93.648 115.843  0.00  0.00    +0.000 A 
ATOM     11  O2  UNL     1      -1.223  93.083 114.751  0.00  0.00    +0.000 OA
ENDROOT
BRANCH   1  17
ATOM     12  C1  UNL     1       0.963  92.998 112.136  0.00  0.00    +0.000 A 
ATOM     13  C2  UNL     1       1.350  92.338 110.965  0.00  0.00    +0.000 A 
ATOM     14  C3  UNL     1       1.287  90.943 110.886  0.00  0.00    +0.000 A 
ATOM     15  C4  UNL     1       0.836  90.210 111.984  0.00  0.00    +0.000 A 
ATOM     16  C5  UNL     1       0.448  90.863 113.156  0.00  0.00    +0.000 A 
ATOM     17  C6  UNL     1       0.504  92.269 113.256  0.00  0.00    +0.000 A 
BRANCH  14  18
ATOM     18  O5  UNL     1       1.670  90.278 109.724  0.00  0.00    +0.000 OA
ATOM     19  H10 UNL     1       1.016  90.117 108.966  0.00  0.00    +0.000 HD
ENDBRANCH  14  18
ENDBRANCH   1  17
BRANCH   8  20
ATOM     20  O3  UNL     1      -5.080  94.434 117.164  0.00  0.00    +0.000 OA
ATOM     21  H8  UNL     1      -5.670  93.611 117.173  0.00  0.00    +0.000 HD
ENDBRANCH   8  20
BRANCH   6  22
ATOM     22  O4  UNL     1      -0.776  95.250 119.115  0.00  0.00    +0.000 OA
ATOM     23  H9  UNL     1      -0.318  96.145 119.159  0.00  0.00    +0.000 HD
ENDBRANCH   6  22
TORSDOF 4
ENDMDL
MODEL 4
REMARK VINA RESULT:      -4.7      1.465      2.945
REMARK  Name = .\Apigenin.pdb
REMARK  4 active torsions:
REMARK  status: ('A' for Active; 'I' for Inactive)
REMARK    1  A    between atoms: C3_3  and  O5_20
REMARK    2  A    between atoms: C6_6  and  C7_7
REMARK    3  A    between atoms: C11_12  and  O4_19
REMARK    4  A    between atoms: C13_14  and  O3_18
REMARK                            x       y       z     vdW  Elec       q    Type
REMARK                         _______ _______ _______ _____ _____    ______ ____
ROOT
ATOM      1  C7  UNL     1      -0.189  93.000 113.787  0.00  0.00    +0.000 A 
ATOM      2  C8  UNL     1       0.710  93.952 114.291  0.00  0.00    +0.000 A 
ATOM      3  C9  UNL     1       0.288  94.864 115.260  0.00  0.00    +0.000 A 
ATOM      4  O1  UNL     1       1.125  95.701 115.684  0.00  0.00    +0.000 OA
ATOM      5  C10 UNL     1      -1.047  94.828 115.732  0.00  0.00    +0.000 A 
ATOM      6  C11 UNL     1      -1.597  95.707 116.719  0.00  0.00    +0.000 A 
ATOM      7  C12 UNL     1      -2.937  95.564 117.098  0.00  0.00    +0.000 A 
ATOM      8  C13 UNL     1      -3.748  94.578 116.533  0.00  0.00    +0.000 A 
ATOM      9  C14 UNL     1      -3.223  93.719 115.572  0.00  0.00    +0.000 A 
ATOM     10  C15 UNL     1      -1.891  93.834 115.170  0.00  0.00    +0.000 A 
ATOM     11  O2  UNL     1      -1.436  92.990 114.250  0.00  0.00    +0.000 OA
ENDROOT
BRANCH   1  17
ATOM     12  C1  UNL     1       0.135  90.596 112.983  0.00  0.00    +0.000 A 
ATOM     13  C2  UNL     1       0.496  89.690 111.980  0.00  0.00    +0.000 A 
ATOM     14  C3  UNL     1       0.914  90.153 110.728  0.00  0.00    +0.000 A 
ATOM     15  C4  UNL     1       0.970  91.525 110.484  0.00  0.00    +0.000 A 
ATOM     16  C5  UNL     1       0.611  92.435 111.481  0.00  0.00    +0.000 A 
ATOM     17  C6  UNL     1       0.186  91.988 112.750  0.00  0.00    +0.000 A 
BRANCH  14  18
ATOM     18  O5  UNL     1       1.277  89.259 109.724  0.00  0.00    +0.000 OA
ATOM     19  H10 UNL     1       2.243  89.143 109.441  0.00  0.00    +0.000 HD
ENDBRANCH  14  18
ENDBRANCH   1  17
BRANCH   8  20
ATOM     20  O3  UNL     1      -5.080  94.446 116.919  0.00  0.00    +0.000 OA
ATOM     21  H8  UNL     1      -5.806  94.211 116.253  0.00  0.00    +0.000 HD
ENDBRANCH   8  20
BRANCH   6  22
ATOM     22  O4  UNL     1      -0.886  96.730 117.357  0.00  0.00    +0.000 OA
ATOM     23  H9  UNL     1      -0.284  96.631 118.156  0.00  0.00    +0.000 HD
ENDBRANCH   6  22
TORSDOF 4
ENDMDL
MODEL 5
REMARK VINA RESULT:      -4.0      1.250      1.359
REMARK  Name = .\Apigenin.pdb
REMARK  4 active torsions:
REMARK  status: ('A' for Active; 'I' for Inactive)
REMARK    1  A    between atoms: C3_3  and  O5_20
REMARK    2  A    between atoms: C6_6  and  C7_7
REMARK    3  A    between atoms: C11_12  and  O4_19
REMARK    4  A    between atoms: C13_14  and  O3_18
REMARK                            x       y       z     vdW  Elec       q    Type
REMARK                         _______ _______ _______ _____ _____    ______ ____
ROOT
ATOM      1  C7  UNL     1      -1.166  92.699 114.243  0.00  0.00    +0.000 A 
ATOM      2  C8  UNL     1      -2.562  92.834 114.303  0.00  0.00    +0.000 A 
ATOM      3  C9  UNL     1      -3.138  93.696 115.237  0.00  0.00    +0.000 A 
ATOM      4  O1  UNL     1      -4.391  93.788 115.258  0.00  0.00    +0.000 OA
ATOM      5  C10 UNL     1      -2.314  94.432 116.123  0.00  0.00    +0.000 A 
ATOM      6  C11 UNL     1      -2.784  95.344 117.122  0.00  0.00    +0.000 A 
ATOM      7  C12 UNL     1      -1.860  96.010 117.936  0.00  0.00    +0.000 A 
ATOM      8  C13 UNL     1      -0.486  95.803 117.792  0.00  0.00    +0.000 A 
ATOM      9  C14 UNL     1      -0.019  94.918 116.825  0.00  0.00    +0.000 A 
ATOM     10  C15 UNL     1      -0.913  94.237 115.996  0.00  0.00    +0.000 A 
ATOM     11  O2  UNL     1      -0.419  93.403 115.087  0.00  0.00    +0.000 OA
ENDROOT
BRANCH   1  17
ATOM     12  C1  UNL     1      -1.063  91.379 112.057  0.00  0.00    +0.000 A 
ATOM     13  C2  UNL     1      -0.373  90.534 111.181  0.00  0.00    +0.000 A 
ATOM     14  C3  UNL     1       0.916  90.091 111.495  0.00  0.00    +0.000 A 
ATOM     15  C4  UNL     1       1.511  90.495 112.690  0.00  0.00    +0.000 A 
ATOM     16  C5  UNL     1       0.828  91.338 113.570  0.00  0.00    +0.000 A 
ATOM     17  C6  UNL     1      -0.473  91.797 113.271  0.00  0.00    +0.000 A 
BRANCH  14  18
ATOM     18  O5  UNL     1       1.610  89.250 110.630  0.00  0.00    +0.000 OA
ATOM     19  H10 UNL     1       2.590  89.032 110.774  0.00  0.00    +0.000 HD
ENDBRANCH  14  18
ENDBRANCH   1  17
BRANCH   8  20
ATOM     20  O3  UNL     1       0.423  96.472 118.608  0.00  0.00    +0.000 OA
ATOM     21  H8  UNL     1       0.390  97.478 118.727  0.00  0.00    +0.000 HD
ENDBRANCH   8  20
BRANCH   6  22
ATOM     22  O4  UNL     1      -4.131  95.635 117.361  0.00  0.00    +0.000 OA
ATOM     23  H9  UNL     1      -4.512  96.529 117.624  0.00  0.00    +0.000 HD
ENDBRANCH   6  22
TORSDOF 4
ENDMDL
