MODEL 1
REMARK VINA RESULT:      -1.3      0.000      0.000
REMARK  Name = .\Apigenin.pdb
REMARK  4 active torsions:
REMARK  status: ('A' for Active; 'I' for Inactive)
REMARK    1  A    between atoms: C3_3  and  O5_20
REMARK    2  A    between atoms: C6_6  and  C7_7
REMARK    3  A    between atoms: C11_12  and  O4_19
REMARK    4  A    between atoms: C13_14  and  O3_18
REMARK                            x       y       z     vdW  Elec       q    Type
REMARK                         _______ _______ _______ _____ _____    ______ ____
ROOT
ATOM      1  C7  UNL     1     -18.605  61.660 -16.489  0.00  0.00    +0.000 A 
ATOM      2  C8  UNL     1     -19.960  62.013 -16.384  0.00  0.00    +0.000 A 
ATOM      3  C9  UNL     1     -20.380  62.869 -15.365  0.00  0.00    +0.000 A 
ATOM      4  O1  UNL     1     -21.601  63.158 -15.307  0.00  0.00    +0.000 OA
ATOM      5  C10 UNL     1     -19.440  63.378 -14.437  0.00  0.00    +0.000 A 
ATOM      6  C11 UNL     1     -19.746  64.260 -13.352  0.00  0.00    +0.000 A 
ATOM      7  C12 UNL     1     -18.719  64.692 -12.504  0.00  0.00    +0.000 A 
ATOM      8  C13 UNL     1     -17.399  64.280 -12.697  0.00  0.00    +0.000 A 
ATOM      9  C14 UNL     1     -17.090  63.423 -13.749  0.00  0.00    +0.000 A 
ATOM     10  C15 UNL     1     -18.090  62.972 -14.613  0.00  0.00    +0.000 A 
ATOM     11  O2  UNL     1     -17.746  62.155 -15.603  0.00  0.00    +0.000 OA
ENDROOT
BRANCH   1  17
ATOM     12  C1  UNL     1     -17.613  59.443 -17.283  0.00  0.00    +0.000 A 
ATOM     13  C2  UNL     1     -17.127  58.631 -18.313  0.00  0.00    +0.000 A 
ATOM     14  C3  UNL     1     -17.092  59.104 -19.628  0.00  0.00    +0.000 A 
ATOM     15  C4  UNL     1     -17.545  60.393 -19.910  0.00  0.00    +0.000 A 
ATOM     16  C5  UNL     1     -18.032  61.209 -18.886  0.00  0.00    +0.000 A 
ATOM     17  C6  UNL     1     -18.076  60.750 -17.552  0.00  0.00    +0.000 A 
BRANCH  14  18
ATOM     18  O5  UNL     1     -16.609  58.302 -20.660  0.00  0.00    +0.000 OA
ATOM     19  H10 UNL     1     -17.118  57.485 -20.978  0.00  0.00    +0.000 HD
ENDBRANCH  14  18
ENDBRANCH   1  17
BRANCH   8  20
ATOM     20  O3  UNL     1     -16.386  64.717 -11.846  0.00  0.00    +0.000 OA
ATOM     21  H8  UNL     1     -16.243  64.301 -10.934  0.00  0.00    +0.000 HD
ENDBRANCH   8  20
BRANCH   6  22
ATOM     22  O4  UNL     1     -21.026  64.742 -13.056  0.00  0.00    +0.000 OA
ATOM     23  H9  UNL     1     -21.249  65.629 -12.636  0.00  0.00    +0.000 HD
ENDBRANCH   6  22
TORSDOF 4
ENDMDL
MODEL 2
REMARK VINA RESULT:      -0.2      3.529      6.277
REMARK  Name = .\Apigenin.pdb
REMARK  4 active torsions:
REMARK  status: ('A' for Active; 'I' for Inactive)
REMARK    1  A    between atoms: C3_3  and  O5_20
REMARK    2  A    between atoms: C6_6  and  C7_7
REMARK    3  A    between atoms: C11_12  and  O4_19
REMARK    4  A    between atoms: C13_14  and  O3_18
REMARK                            x       y       z     vdW  Elec       q    Type
REMARK                         _______ _______ _______ _____ _____    ______ ____
ROOT
ATOM      1  C7  UNL     1     -18.891  61.999 -17.082  0.00  0.00    +0.000 A 
ATOM      2  C8  UNL     1     -17.687  62.317 -17.731  0.00  0.00    +0.000 A 
ATOM      3  C9  UNL     1     -17.707  63.077 -18.901  0.00  0.00    +0.000 A 
ATOM      4  O1  UNL     1     -16.607  63.339 -19.450  0.00  0.00    +0.000 OA
ATOM      5  C10 UNL     1     -18.941  63.526 -19.432  0.00  0.00    +0.000 A 
ATOM      6  C11 UNL     1     -19.090  64.309 -20.621  0.00  0.00    +0.000 A 
ATOM      7  C12 UNL     1     -20.372  64.689 -21.039  0.00  0.00    +0.000 A 
ATOM      8  C13 UNL     1     -21.508  64.318 -20.317  0.00  0.00    +0.000 A 
ATOM      9  C14 UNL     1     -21.373  63.556 -19.160  0.00  0.00    +0.000 A 
ATOM     10  C15 UNL     1     -20.111  63.160 -18.715  0.00  0.00    +0.000 A 
ATOM     11  O2  UNL     1     -20.033  62.434 -17.605  0.00  0.00    +0.000 OA
ENDROOT
BRANCH   1  17
ATOM     12  C1  UNL     1     -19.004  59.778 -15.823  0.00  0.00    +0.000 A 
ATOM     13  C2  UNL     1     -19.063  59.067 -14.620  0.00  0.00    +0.000 A 
ATOM     14  C3  UNL     1     -19.072  59.746 -13.397  0.00  0.00    +0.000 A 
ATOM     15  C4  UNL     1     -19.024  61.140 -13.383  0.00  0.00    +0.000 A 
ATOM     16  C5  UNL     1     -18.965  61.856 -14.581  0.00  0.00    +0.000 A 
ATOM     17  C6  UNL     1     -18.954  61.190 -15.825  0.00  0.00    +0.000 A 
BRANCH  14  18
ATOM     18  O5  UNL     1     -19.131  59.047 -12.194  0.00  0.00    +0.000 OA
ATOM     19  H10 UNL     1     -19.983  59.004 -11.648  0.00  0.00    +0.000 HD
ENDBRANCH  14  18
ENDBRANCH   1  17
BRANCH   8  20
ATOM     20  O3  UNL     1     -22.778  64.702 -20.743  0.00  0.00    +0.000 OA
ATOM     21  H8  UNL     1     -23.184  64.338 -21.597  0.00  0.00    +0.000 HD
ENDBRANCH   8  20
BRANCH   6  22
ATOM     22  O4  UNL     1     -18.032  64.742 -21.427  0.00  0.00    +0.000 OA
ATOM     23  H9  UNL     1     -17.391  65.490 -21.222  0.00  0.00    +0.000 HD
ENDBRANCH   6  22
TORSDOF 4
ENDMDL
MODEL 3
REMARK VINA RESULT:       0.7      1.738      6.980
REMARK  Name = .\Apigenin.pdb
REMARK  4 active torsions:
REMARK  status: ('A' for Active; 'I' for Inactive)
REMARK    1  A    between atoms: C3_3  and  O5_20
REMARK    2  A    between atoms: C6_6  and  C7_7
REMARK    3  A    between atoms: C11_12  and  O4_19
REMARK    4  A    between atoms: C13_14  and  O3_18
REMARK                            x       y       z     vdW  Elec       q    Type
REMARK                         _______ _______ _______ _____ _____    ______ ____
ROOT
ATOM      1  C7  UNL     1     -18.586  62.055 -16.489  0.00  0.00    +0.000 A 
ATOM      2  C8  UNL     1     -18.539  62.653 -17.758  0.00  0.00    +0.000 A 
ATOM      3  C9  UNL     1     -18.141  61.905 -18.867  0.00  0.00    +0.000 A 
ATOM      4  O1  UNL     1     -18.112  62.479 -19.984  0.00  0.00    +0.000 OA
ATOM      5  C10 UNL     1     -17.784  60.543 -18.710  0.00  0.00    +0.000 A 
ATOM      6  C11 UNL     1     -17.360  59.675 -19.766  0.00  0.00    +0.000 A 
ATOM      7  C12 UNL     1     -17.035  58.344 -19.475  0.00  0.00    +0.000 A 
ATOM      8  C13 UNL     1     -17.117  57.847 -18.173  0.00  0.00    +0.000 A 
ATOM      9  C14 UNL     1     -17.528  58.683 -17.139  0.00  0.00    +0.000 A 
ATOM     10  C15 UNL     1     -17.859  60.016 -17.394  0.00  0.00    +0.000 A 
ATOM     11  O2  UNL     1     -18.245  60.775 -16.374  0.00  0.00    +0.000 OA
ENDROOT
BRANCH   1  17
ATOM     12  C1  UNL     1     -19.730  63.999 -15.288  0.00  0.00    +0.000 A 
ATOM     13  C2  UNL     1     -20.096  64.646 -14.104  0.00  0.00    +0.000 A 
ATOM     14  C3  UNL     1     -19.745  64.103 -12.864  0.00  0.00    +0.000 A 
ATOM     15  C4  UNL     1     -19.027  62.908 -12.813  0.00  0.00    +0.000 A 
ATOM     16  C5  UNL     1     -18.658  62.256 -13.993  0.00  0.00    +0.000 A 
ATOM     17  C6  UNL     1     -19.002  62.788 -15.253  0.00  0.00    +0.000 A 
BRANCH  14  18
ATOM     18  O5  UNL     1     -20.105  64.741 -11.679  0.00  0.00    +0.000 OA
ATOM     19  H10 UNL     1     -19.548  64.647 -10.837  0.00  0.00    +0.000 HD
ENDBRANCH  14  18
ENDBRANCH   1  17
BRANCH   8  20
ATOM     20  O3  UNL     1     -16.791  56.521 -17.897  0.00  0.00    +0.000 OA
ATOM     21  H8  UNL     1     -16.767  56.167 -16.948  0.00  0.00    +0.000 HD
ENDBRANCH   8  20
BRANCH   6  22
ATOM     22  O4  UNL     1     -17.239  60.054 -21.107  0.00  0.00    +0.000 OA
ATOM     23  H9  UNL     1     -17.085  60.987 -21.453  0.00  0.00    +0.000 HD
ENDBRANCH   6  22
TORSDOF 4
ENDMDL
MODEL 4
REMARK VINA RESULT:       0.8      0.599      1.231
REMARK  Name = .\Apigenin.pdb
REMARK  4 active torsions:
REMARK  status: ('A' for Active; 'I' for Inactive)
REMARK    1  A    between atoms: C3_3  and  O5_20
REMARK    2  A    between atoms: C6_6  and  C7_7
REMARK    3  A    between atoms: C11_12  and  O4_19
REMARK    4  A    between atoms: C13_14  and  O3_18
REMARK                            x       y       z     vdW  Elec       q    Type
REMARK                         _______ _______ _______ _____ _____    ______ ____
ROOT
ATOM      1  C7  UNL     1     -18.548  61.336 -16.881  0.00  0.00    +0.000 A 
ATOM      2  C8  UNL     1     -19.875  61.787 -16.809  0.00  0.00    +0.000 A 
ATOM      3  C9  UNL     1     -20.244  62.714 -15.833  0.00  0.00    +0.000 A 
ATOM      4  O1  UNL     1     -21.442  63.092 -15.803  0.00  0.00    +0.000 OA
ATOM      5  C10 UNL     1     -19.279  63.197 -14.916  0.00  0.00    +0.000 A 
ATOM      6  C11 UNL     1     -19.533  64.145 -13.873  0.00  0.00    +0.000 A 
ATOM      7  C12 UNL     1     -18.486  64.540 -13.032  0.00  0.00    +0.000 A 
ATOM      8  C13 UNL     1     -17.197  64.028 -13.190  0.00  0.00    +0.000 A 
ATOM      9  C14 UNL     1     -16.939  63.105 -14.200  0.00  0.00    +0.000 A 
ATOM     10  C15 UNL     1     -17.960  62.689 -15.057  0.00  0.00    +0.000 A 
ATOM     11  O2  UNL     1     -17.665  61.807 -16.006  0.00  0.00    +0.000 OA
ENDROOT
BRANCH   1  17
ATOM     12  C1  UNL     1     -17.917  60.665 -19.265  0.00  0.00    +0.000 A 
ATOM     13  C2  UNL     1     -17.471  59.703 -20.176  0.00  0.00    +0.000 A 
ATOM     14  C3  UNL     1     -17.174  58.406 -19.746  0.00  0.00    +0.000 A 
ATOM     15  C4  UNL     1     -17.325  58.075 -18.399  0.00  0.00    +0.000 A 
ATOM     16  C5  UNL     1     -17.770  59.031 -17.483  0.00  0.00    +0.000 A 
ATOM     17  C6  UNL     1     -18.074  60.345 -17.897  0.00  0.00    +0.000 A 
BRANCH  14  18
ATOM     18  O5  UNL     1     -16.729  57.441 -20.646  0.00  0.00    +0.000 OA
ATOM     19  H10 UNL     1     -17.038  56.477 -20.585  0.00  0.00    +0.000 HD
ENDBRANCH  14  18
ENDBRANCH   1  17
BRANCH   8  20
ATOM     20  O3  UNL     1     -16.164  64.429 -12.346  0.00  0.00    +0.000 OA
ATOM     21  H8  UNL     1     -15.353  63.845 -12.184  0.00  0.00    +0.000 HD
ENDBRANCH   8  20
BRANCH   6  22
ATOM     22  O4  UNL     1     -20.778  64.728 -13.616  0.00  0.00    +0.000 OA
ATOM     23  H9  UNL     1     -20.943  65.668 -13.298  0.00  0.00    +0.000 HD
ENDBRANCH   6  22
TORSDOF 4
ENDMDL
