MODEL 1
REMARK VINA RESULT:      -7.6      0.000      0.000
REMARK  Name = .\Apigenin.pdb
REMARK  4 active torsions:
REMARK  status: ('A' for Active; 'I' for Inactive)
REMARK    1  A    between atoms: C3_3  and  O5_20
REMARK    2  A    between atoms: C6_6  and  C7_7
REMARK    3  A    between atoms: C11_12  and  O4_19
REMARK    4  A    between atoms: C13_14  and  O3_18
REMARK                            x       y       z     vdW  Elec       q    Type
REMARK                         _______ _______ _______ _____ _____    ______ ____
ROOT
ATOM      1  C7  UNL     1       2.327  53.751   9.605  0.00  0.00    +0.000 A 
ATOM      2  C8  UNL     1       0.958  53.497   9.780  0.00  0.00    +0.000 A 
ATOM      3  C9  UNL     1       0.543  52.432  10.582  0.00  0.00    +0.000 A 
ATOM      4  O1  UNL     1      -0.692  52.240  10.711  0.00  0.00    +0.000 OA
ATOM      5  C10 UNL     1       1.505  51.609  11.216  0.00  0.00    +0.000 A 
ATOM      6  C11 UNL     1       1.206  50.491  12.059  0.00  0.00    +0.000 A 
ATOM      7  C12 UNL     1       2.254  49.757  12.627  0.00  0.00    +0.000 A 
ATOM      8  C13 UNL     1       3.588  50.095  12.388  0.00  0.00    +0.000 A 
ATOM      9  C14 UNL     1       3.889  51.181  11.570  0.00  0.00    +0.000 A 
ATOM     10  C15 UNL     1       2.868  51.934  10.987  0.00  0.00    +0.000 A 
ATOM     11  O2  UNL     1       3.206  52.960  10.214  0.00  0.00    +0.000 OA
ENDROOT
BRANCH   1  17
ATOM     12  C1  UNL     1       3.806  55.801   9.233  0.00  0.00    +0.000 A 
ATOM     13  C2  UNL     1       4.265  56.832   8.407  0.00  0.00    +0.000 A 
ATOM     14  C3  UNL     1       3.782  56.959   7.101  0.00  0.00    +0.000 A 
ATOM     15  C4  UNL     1       2.838  56.049   6.624  0.00  0.00    +0.000 A 
ATOM     16  C5  UNL     1       2.376  55.017   7.444  0.00  0.00    +0.000 A 
ATOM     17  C6  UNL     1       2.851  54.872   8.764  0.00  0.00    +0.000 A 
BRANCH  14  18
ATOM     18  O5  UNL     1       4.232  57.983   6.271  0.00  0.00    +0.000 OA
ATOM     19  H10 UNL     1       3.603  58.473   5.645  0.00  0.00    +0.000 HD
ENDBRANCH  14  18
ENDBRANCH   1  17
BRANCH   8  20
ATOM     20  O3  UNL     1       4.622  49.357  12.960  0.00  0.00    +0.000 OA
ATOM     21  H8  UNL     1       4.458  48.449  13.378  0.00  0.00    +0.000 HD
ENDBRANCH   8  20
BRANCH   6  22
ATOM     22  O4  UNL     1      -0.086  50.054  12.372  0.00  0.00    +0.000 OA
ATOM     23  H9  UNL     1      -0.369  49.106  12.551  0.00  0.00    +0.000 HD
ENDBRANCH   6  22
TORSDOF 4
ENDMDL
MODEL 2
REMARK VINA RESULT:      -7.1      1.673      6.830
REMARK  Name = .\Apigenin.pdb
REMARK  4 active torsions:
REMARK  status: ('A' for Active; 'I' for Inactive)
REMARK    1  A    between atoms: C3_3  and  O5_20
REMARK    2  A    between atoms: C6_6  and  C7_7
REMARK    3  A    between atoms: C11_12  and  O4_19
REMARK    4  A    between atoms: C13_14  and  O3_18
REMARK                            x       y       z     vdW  Elec       q    Type
REMARK                         _______ _______ _______ _____ _____    ______ ____
ROOT
ATOM      1  C7  UNL     1       2.817  53.985   9.544  0.00  0.00    +0.000 A 
ATOM      2  C8  UNL     1       2.281  54.364   8.303  0.00  0.00    +0.000 A 
ATOM      3  C9  UNL     1       2.855  55.417   7.589  0.00  0.00    +0.000 A 
ATOM      4  O1  UNL     1       2.345  55.724   6.482  0.00  0.00    +0.000 OA
ATOM      5  C10 UNL     1       3.975  56.103   8.119  0.00  0.00    +0.000 A 
ATOM      6  C11 UNL     1       4.649  57.195   7.484  0.00  0.00    +0.000 A 
ATOM      7  C12 UNL     1       5.749  57.787   8.118  0.00  0.00    +0.000 A 
ATOM      8  C13 UNL     1       6.202  57.331   9.357  0.00  0.00    +0.000 A 
ATOM      9  C14 UNL     1       5.554  56.270   9.982  0.00  0.00    +0.000 A 
ATOM     10  C15 UNL     1       4.454  55.657   9.379  0.00  0.00    +0.000 A 
ATOM     11  O2  UNL     1       3.869  54.648  10.015  0.00  0.00    +0.000 OA
ENDROOT
BRANCH   1  17
ATOM     12  C1  UNL     1       3.067  52.034  11.175  0.00  0.00    +0.000 A 
ATOM     13  C2  UNL     1       2.498  51.002  11.928  0.00  0.00    +0.000 A 
ATOM     14  C3  UNL     1       1.118  50.779  11.893  0.00  0.00    +0.000 A 
ATOM     15  C4  UNL     1       0.308  51.593  11.100  0.00  0.00    +0.000 A 
ATOM     16  C5  UNL     1       0.870  52.626  10.346  0.00  0.00    +0.000 A 
ATOM     17  C6  UNL     1       2.260  52.868  10.369  0.00  0.00    +0.000 A 
BRANCH  14  18
ATOM     18  O5  UNL     1       0.543  49.753  12.639  0.00  0.00    +0.000 OA
ATOM     19  H10 UNL     1       1.092  49.194  13.281  0.00  0.00    +0.000 HD
ENDBRANCH  14  18
ENDBRANCH   1  17
BRANCH   8  20
ATOM     20  O3  UNL     1       7.298  57.929   9.977  0.00  0.00    +0.000 OA
ATOM     21  H8  UNL     1       7.939  57.396  10.551  0.00  0.00    +0.000 HD
ENDBRANCH   8  20
BRANCH   6  22
ATOM     22  O4  UNL     1       4.291  57.739   6.246  0.00  0.00    +0.000 OA
ATOM     23  H9  UNL     1       4.411  57.306   5.346  0.00  0.00    +0.000 HD
ENDBRANCH   6  22
TORSDOF 4
ENDMDL
MODEL 3
REMARK VINA RESULT:      -6.7      1.498      3.088
REMARK  Name = .\Apigenin.pdb
REMARK  4 active torsions:
REMARK  status: ('A' for Active; 'I' for Inactive)
REMARK    1  A    between atoms: C3_3  and  O5_20
REMARK    2  A    between atoms: C6_6  and  C7_7
REMARK    3  A    between atoms: C11_12  and  O4_19
REMARK    4  A    between atoms: C13_14  and  O3_18
REMARK                            x       y       z     vdW  Elec       q    Type
REMARK                         _______ _______ _______ _____ _____    ______ ____
ROOT
ATOM      1  C7  UNL     1       3.704  54.138   8.544  0.00  0.00    +0.000 A 
ATOM      2  C8  UNL     1       4.649  53.158   8.887  0.00  0.00    +0.000 A 
ATOM      3  C9  UNL     1       4.270  52.073   9.680  0.00  0.00    +0.000 A 
ATOM      4  O1  UNL     1       5.147  51.218   9.964  0.00  0.00    +0.000 OA
ATOM      5  C10 UNL     1       2.935  51.964  10.138  0.00  0.00    +0.000 A 
ATOM      6  C11 UNL     1       2.427  50.902  10.954  0.00  0.00    +0.000 A 
ATOM      7  C12 UNL     1       1.081  50.914  11.339  0.00  0.00    +0.000 A 
ATOM      8  C13 UNL     1       0.222  51.941  10.941  0.00  0.00    +0.000 A 
ATOM      9  C14 UNL     1       0.706  52.977  10.148  0.00  0.00    +0.000 A 
ATOM     10  C15 UNL     1       2.043  52.997   9.746  0.00  0.00    +0.000 A 
ATOM     11  O2  UNL     1       2.458  54.007   8.989  0.00  0.00    +0.000 OA
ENDROOT
BRANCH   1  17
ATOM     12  C1  UNL     1       5.344  55.829   7.552  0.00  0.00    +0.000 A 
ATOM     13  C2  UNL     1       5.597  56.946   6.750  0.00  0.00    +0.000 A 
ATOM     14  C3  UNL     1       4.550  57.586   6.079  0.00  0.00    +0.000 A 
ATOM     15  C4  UNL     1       3.247  57.104   6.214  0.00  0.00    +0.000 A 
ATOM     16  C5  UNL     1       2.988  55.988   7.014  0.00  0.00    +0.000 A 
ATOM     17  C6  UNL     1       4.030  55.328   7.699  0.00  0.00    +0.000 A 
BRANCH  14  18
ATOM     18  O5  UNL     1       4.792  58.699   5.278  0.00  0.00    +0.000 OA
ATOM     19  H10 UNL     1       5.415  58.652   4.480  0.00  0.00    +0.000 HD
ENDBRANCH  14  18
ENDBRANCH   1  17
BRANCH   8  20
ATOM     20  O3  UNL     1      -1.115  51.940  11.331  0.00  0.00    +0.000 OA
ATOM     21  H8  UNL     1      -1.555  51.113  11.716  0.00  0.00    +0.000 HD
ENDBRANCH   8  20
BRANCH   6  22
ATOM     22  O4  UNL     1       3.186  49.821  11.415  0.00  0.00    +0.000 OA
ATOM     23  H9  UNL     1       3.752  49.206  10.854  0.00  0.00    +0.000 HD
ENDBRANCH   6  22
TORSDOF 4
ENDMDL
MODEL 4
REMARK VINA RESULT:      -6.5      3.107      6.989
REMARK  Name = .\Apigenin.pdb
REMARK  4 active torsions:
REMARK  status: ('A' for Active; 'I' for Inactive)
REMARK    1  A    between atoms: C3_3  and  O5_20
REMARK    2  A    between atoms: C6_6  and  C7_7
REMARK    3  A    between atoms: C11_12  and  O4_19
REMARK    4  A    between atoms: C13_14  and  O3_18
REMARK                            x       y       z     vdW  Elec       q    Type
REMARK                         _______ _______ _______ _____ _____    ______ ____
ROOT
ATOM      1  C7  UNL     1       4.262  54.835   9.947  0.00  0.00    +0.000 A 
ATOM      2  C8  UNL     1       4.421  56.084  10.569  0.00  0.00    +0.000 A 
ATOM      3  C9  UNL     1       5.576  56.834  10.340  0.00  0.00    +0.000 A 
ATOM      4  O1  UNL     1       5.678  57.946  10.916  0.00  0.00    +0.000 OA
ATOM      5  C10 UNL     1       6.586  56.333   9.483  0.00  0.00    +0.000 A 
ATOM      6  C11 UNL     1       7.811  57.006   9.172  0.00  0.00    +0.000 A 
ATOM      7  C12 UNL     1       8.729  56.398   8.306  0.00  0.00    +0.000 A 
ATOM      8  C13 UNL     1       8.472  55.148   7.739  0.00  0.00    +0.000 A 
ATOM      9  C14 UNL     1       7.284  54.486   8.036  0.00  0.00    +0.000 A 
ATOM     10  C15 UNL     1       6.347  55.063   8.895  0.00  0.00    +0.000 A 
ATOM     11  O2  UNL     1       5.228  54.393   9.148  0.00  0.00    +0.000 OA
ENDROOT
BRANCH   1  17
ATOM     12  C1  UNL     1       1.765  54.350   9.703  0.00  0.00    +0.000 A 
ATOM     13  C2  UNL     1       0.667  53.508   9.908  0.00  0.00    +0.000 A 
ATOM     14  C3  UNL     1       0.832  52.276  10.550  0.00  0.00    +0.000 A 
ATOM     15  C4  UNL     1       2.099  51.890  10.987  0.00  0.00    +0.000 A 
ATOM     16  C5  UNL     1       3.200  52.727  10.786  0.00  0.00    +0.000 A 
ATOM     17  C6  UNL     1       3.055  53.973  10.140  0.00  0.00    +0.000 A 
BRANCH  14  18
ATOM     18  O5  UNL     1      -0.256  51.431  10.758  0.00  0.00    +0.000 OA
ATOM     19  H10 UNL     1      -0.556  51.175  11.692  0.00  0.00    +0.000 HD
ENDBRANCH  14  18
ENDBRANCH   1  17
BRANCH   8  20
ATOM     20  O3  UNL     1       9.393  54.555   6.879  0.00  0.00    +0.000 OA
ATOM     21  H8  UNL     1      10.046  53.852   7.204  0.00  0.00    +0.000 HD
ENDBRANCH   8  20
BRANCH   6  22
ATOM     22  O4  UNL     1       8.181  58.258   9.675  0.00  0.00    +0.000 OA
ATOM     23  H9  UNL     1       8.955  58.821   9.365  0.00  0.00    +0.000 HD
ENDBRANCH   6  22
TORSDOF 4
ENDMDL
MODEL 5
REMARK VINA RESULT:      -6.5      3.097      7.304
REMARK  Name = .\Apigenin.pdb
REMARK  4 active torsions:
REMARK  status: ('A' for Active; 'I' for Inactive)
REMARK    1  A    between atoms: C3_3  and  O5_20
REMARK    2  A    between atoms: C6_6  and  C7_7
REMARK    3  A    between atoms: C11_12  and  O4_19
REMARK    4  A    between atoms: C13_14  and  O3_18
REMARK                            x       y       z     vdW  Elec       q    Type
REMARK                         _______ _______ _______ _____ _____    ______ ____
ROOT
ATOM      1  C7  UNL     1       3.608  55.652  10.122  0.00  0.00    +0.000 A 
ATOM      2  C8  UNL     1       4.163  56.102   8.914  0.00  0.00    +0.000 A 
ATOM      3  C9  UNL     1       4.901  57.286   8.886  0.00  0.00    +0.000 A 
ATOM      4  O1  UNL     1       5.380  57.654   7.783  0.00  0.00    +0.000 OA
ATOM      5  C10 UNL     1       5.087  58.032  10.075  0.00  0.00    +0.000 A 
ATOM      6  C11 UNL     1       5.821  59.258  10.173  0.00  0.00    +0.000 A 
ATOM      7  C12 UNL     1       5.930  59.897  11.414  0.00  0.00    +0.000 A 
ATOM      8  C13 UNL     1       5.337  59.361  12.560  0.00  0.00    +0.000 A 
ATOM      9  C14 UNL     1       4.622  58.171  12.474  0.00  0.00    +0.000 A 
ATOM     10  C15 UNL     1       4.493  57.507  11.253  0.00  0.00    +0.000 A 
ATOM     11  O2  UNL     1       3.801  56.373  11.222  0.00  0.00    +0.000 OA
ENDROOT
BRANCH   1  17
ATOM     12  C1  UNL     1       3.347  53.181  10.719  0.00  0.00    +0.000 A 
ATOM     13  C2  UNL     1       2.555  52.031  10.806  0.00  0.00    +0.000 A 
ATOM     14  C3  UNL     1       1.214  52.065  10.413  0.00  0.00    +0.000 A 
ATOM     15  C4  UNL     1       0.666  53.255   9.933  0.00  0.00    +0.000 A 
ATOM     16  C5  UNL     1       1.451  54.407   9.843  0.00  0.00    +0.000 A 
ATOM     17  C6  UNL     1       2.807  54.393  10.235  0.00  0.00    +0.000 A 
BRANCH  14  18
ATOM     18  O5  UNL     1       0.418  50.925  10.495  0.00  0.00    +0.000 OA
ATOM     19  H10 UNL     1       0.432  50.216   9.770  0.00  0.00    +0.000 HD
ENDBRANCH  14  18
ENDBRANCH   1  17
BRANCH   8  20
ATOM     20  O3  UNL     1       5.453  60.008  13.788  0.00  0.00    +0.000 OA
ATOM     21  H8  UNL     1       4.808  59.825  14.547  0.00  0.00    +0.000 HD
ENDBRANCH   8  20
BRANCH   6  22
ATOM     22  O4  UNL     1       6.457  59.892   9.101  0.00  0.00    +0.000 OA
ATOM     23  H9  UNL     1       7.177  59.500   8.517  0.00  0.00    +0.000 HD
ENDBRANCH   6  22
TORSDOF 4
ENDMDL
MODEL 6
REMARK VINA RESULT:      -6.4      2.219      2.390
REMARK  Name = .\Apigenin.pdb
REMARK  4 active torsions:
REMARK  status: ('A' for Active; 'I' for Inactive)
REMARK    1  A    between atoms: C3_3  and  O5_20
REMARK    2  A    between atoms: C6_6  and  C7_7
REMARK    3  A    between atoms: C11_12  and  O4_19
REMARK    4  A    between atoms: C13_14  and  O3_18
REMARK                            x       y       z     vdW  Elec       q    Type
REMARK                         _______ _______ _______ _____ _____    ______ ____
ROOT
ATOM      1  C7  UNL     1       3.577  53.317   8.805  0.00  0.00    +0.000 A 
ATOM      2  C8  UNL     1       2.286  53.860   8.713  0.00  0.00    +0.000 A 
ATOM      3  C9  UNL     1       1.242  53.303   9.453  0.00  0.00    +0.000 A 
ATOM      4  O1  UNL     1       0.101  53.819   9.341  0.00  0.00    +0.000 OA
ATOM      5  C10 UNL     1       1.487  52.191  10.295  0.00  0.00    +0.000 A 
ATOM      6  C11 UNL     1       0.502  51.534  11.101  0.00  0.00    +0.000 A 
ATOM      7  C12 UNL     1       0.878  50.442  11.893  0.00  0.00    +0.000 A 
ATOM      8  C13 UNL     1       2.196  49.980  11.912  0.00  0.00    +0.000 A 
ATOM      9  C14 UNL     1       3.160  50.612  11.132  0.00  0.00    +0.000 A 
ATOM     10  C15 UNL     1       2.820  51.704  10.331  0.00  0.00    +0.000 A 
ATOM     11  O2  UNL     1       3.776  52.274   9.605  0.00  0.00    +0.000 OA
ENDROOT
BRANCH   1  17
ATOM     12  C1  UNL     1       5.724  54.692   8.633  0.00  0.00    +0.000 A 
ATOM     13  C2  UNL     1       6.801  55.171   7.880  0.00  0.00    +0.000 A 
ATOM     14  C3  UNL     1       6.926  54.829   6.529  0.00  0.00    +0.000 A 
ATOM     15  C4  UNL     1       5.969  54.006   5.935  0.00  0.00    +0.000 A 
ATOM     16  C5  UNL     1       4.891  53.524   6.682  0.00  0.00    +0.000 A 
ATOM     17  C6  UNL     1       4.748  53.857   8.046  0.00  0.00    +0.000 A 
BRANCH  14  18
ATOM     18  O5  UNL     1       7.994  55.302   5.771  0.00  0.00    +0.000 OA
ATOM     19  H10 UNL     1       7.872  56.037   5.084  0.00  0.00    +0.000 HD
ENDBRANCH  14  18
ENDBRANCH   1  17
BRANCH   8  20
ATOM     20  O3  UNL     1       2.556  48.892  12.704  0.00  0.00    +0.000 OA
ATOM     21  H8  UNL     1       3.217  48.196  12.381  0.00  0.00    +0.000 HD
ENDBRANCH   8  20
BRANCH   6  22
ATOM     22  O4  UNL     1      -0.846  51.902  11.167  0.00  0.00    +0.000 OA
ATOM     23  H9  UNL     1      -1.629  51.366  10.833  0.00  0.00    +0.000 HD
ENDBRANCH   6  22
TORSDOF 4
ENDMDL
MODEL 7
REMARK VINA RESULT:      -6.4      3.390      5.575
REMARK  Name = .\Apigenin.pdb
REMARK  4 active torsions:
REMARK  status: ('A' for Active; 'I' for Inactive)
REMARK    1  A    between atoms: C3_3  and  O5_20
REMARK    2  A    between atoms: C6_6  and  C7_7
REMARK    3  A    between atoms: C11_12  and  O4_19
REMARK    4  A    between atoms: C13_14  and  O3_18
REMARK                            x       y       z     vdW  Elec       q    Type
REMARK                         _______ _______ _______ _____ _____    ______ ____
ROOT
ATOM      1  C7  UNL     1       3.990  56.863  10.105  0.00  0.00    +0.000 A 
ATOM      2  C8  UNL     1       4.391  56.991   8.766  0.00  0.00    +0.000 A 
ATOM      3  C9  UNL     1       4.037  56.012   7.837  0.00  0.00    +0.000 A 
ATOM      4  O1  UNL     1       4.417  56.165   6.648  0.00  0.00    +0.000 OA
ATOM      5  C10 UNL     1       3.275  54.891   8.246  0.00  0.00    +0.000 A 
ATOM      6  C11 UNL     1       2.852  53.824   7.389  0.00  0.00    +0.000 A 
ATOM      7  C12 UNL     1       2.100  52.770   7.923  0.00  0.00    +0.000 A 
ATOM      8  C13 UNL     1       1.753  52.740   9.275  0.00  0.00    +0.000 A 
ATOM      9  C14 UNL     1       2.159  53.772  10.116  0.00  0.00    +0.000 A 
ATOM     10  C15 UNL     1       2.911  54.838   9.617  0.00  0.00    +0.000 A 
ATOM     11  O2  UNL     1       3.275  55.799  10.459  0.00  0.00    +0.000 OA
ENDROOT
BRANCH   1  17
ATOM     12  C1  UNL     1       3.614  57.974  12.376  0.00  0.00    +0.000 A 
ATOM     13  C2  UNL     1       3.969  58.932  13.331  0.00  0.00    +0.000 A 
ATOM     14  C3  UNL     1       5.040  59.801  13.096  0.00  0.00    +0.000 A 
ATOM     15  C4  UNL     1       5.754  59.708  11.901  0.00  0.00    +0.000 A 
ATOM     16  C5  UNL     1       5.404  58.754  10.943  0.00  0.00    +0.000 A 
ATOM     17  C6  UNL     1       4.328  57.868  11.161  0.00  0.00    +0.000 A 
BRANCH  14  18
ATOM     18  O5  UNL     1       5.400  60.758  14.042  0.00  0.00    +0.000 OA
ATOM     19  H10 UNL     1       6.196  61.370  13.899  0.00  0.00    +0.000 HD
ENDBRANCH  14  18
ENDBRANCH   1  17
BRANCH   8  20
ATOM     20  O3  UNL     1       1.004  51.686   9.792  0.00  0.00    +0.000 OA
ATOM     21  H8  UNL     1       0.673  50.930   9.204  0.00  0.00    +0.000 HD
ENDBRANCH   8  20
BRANCH   6  22
ATOM     22  O4  UNL     1       3.136  53.742   6.022  0.00  0.00    +0.000 OA
ATOM     23  H9  UNL     1       3.975  54.058   5.566  0.00  0.00    +0.000 HD
ENDBRANCH   6  22
TORSDOF 4
ENDMDL
MODEL 8
REMARK VINA RESULT:      -6.4      2.003      7.274
REMARK  Name = .\Apigenin.pdb
REMARK  4 active torsions:
REMARK  status: ('A' for Active; 'I' for Inactive)
REMARK    1  A    between atoms: C3_3  and  O5_20
REMARK    2  A    between atoms: C6_6  and  C7_7
REMARK    3  A    between atoms: C11_12  and  O4_19
REMARK    4  A    between atoms: C13_14  and  O3_18
REMARK                            x       y       z     vdW  Elec       q    Type
REMARK                         _______ _______ _______ _____ _____    ______ ____
ROOT
ATOM      1  C7  UNL     1       3.325  52.512   9.254  0.00  0.00    +0.000 A 
ATOM      2  C8  UNL     1       4.723  52.420   9.163  0.00  0.00    +0.000 A 
ATOM      3  C9  UNL     1       5.438  53.373   8.436  0.00  0.00    +0.000 A 
ATOM      4  O1  UNL     1       6.688  53.253   8.379  0.00  0.00    +0.000 OA
ATOM      5  C10 UNL     1       4.753  54.430   7.789  0.00  0.00    +0.000 A 
ATOM      6  C11 UNL     1       5.372  55.464   7.017  0.00  0.00    +0.000 A 
ATOM      7  C12 UNL     1       4.576  56.454   6.428  0.00  0.00    +0.000 A 
ATOM      8  C13 UNL     1       3.187  56.453   6.582  0.00  0.00    +0.000 A 
ATOM      9  C14 UNL     1       2.576  55.452   7.331  0.00  0.00    +0.000 A 
ATOM     10  C15 UNL     1       3.340  54.449   7.931  0.00  0.00    +0.000 A 
ATOM     11  O2  UNL     1       2.710  53.516   8.637  0.00  0.00    +0.000 OA
ENDROOT
BRANCH   1  17
ATOM     12  C1  UNL     1       1.379  51.918  10.799  0.00  0.00    +0.000 A 
ATOM     13  C2  UNL     1       0.627  50.963  11.492  0.00  0.00    +0.000 A 
ATOM     14  C3  UNL     1       0.965  49.608  11.417  0.00  0.00    +0.000 A 
ATOM     15  C4  UNL     1       2.058  49.212  10.646  0.00  0.00    +0.000 A 
ATOM     16  C5  UNL     1       2.813  50.161   9.952  0.00  0.00    +0.000 A 
ATOM     17  C6  UNL     1       2.488  51.532  10.014  0.00  0.00    +0.000 A 
BRANCH  14  18
ATOM     18  O5  UNL     1       0.223  48.650  12.104  0.00  0.00    +0.000 OA
ATOM     19  H10 UNL     1       0.170  47.691  11.782  0.00  0.00    +0.000 HD
ENDBRANCH  14  18
ENDBRANCH   1  17
BRANCH   8  20
ATOM     20  O3  UNL     1       2.407  57.445   5.991  0.00  0.00    +0.000 OA
ATOM     21  H8  UNL     1       2.412  58.398   6.333  0.00  0.00    +0.000 HD
ENDBRANCH   8  20
BRANCH   6  22
ATOM     22  O4  UNL     1       6.748  55.572   6.792  0.00  0.00    +0.000 OA
ATOM     23  H9  UNL     1       7.433  55.932   7.436  0.00  0.00    +0.000 HD
ENDBRANCH   6  22
TORSDOF 4
ENDMDL
MODEL 9
REMARK VINA RESULT:      -6.4      2.127      2.313
REMARK  Name = .\Apigenin.pdb
REMARK  4 active torsions:
REMARK  status: ('A' for Active; 'I' for Inactive)
REMARK    1  A    between atoms: C3_3  and  O5_20
REMARK    2  A    between atoms: C6_6  and  C7_7
REMARK    3  A    between atoms: C11_12  and  O4_19
REMARK    4  A    between atoms: C13_14  and  O3_18
REMARK                            x       y       z     vdW  Elec       q    Type
REMARK                         _______ _______ _______ _____ _____    ______ ____
ROOT
ATOM      1  C7  UNL     1       3.217  54.090   9.745  0.00  0.00    +0.000 A 
ATOM      2  C8  UNL     1       1.840  54.007  10.009  0.00  0.00    +0.000 A 
ATOM      3  C9  UNL     1       1.217  52.760  10.072  0.00  0.00    +0.000 A 
ATOM      4  O1  UNL     1      -0.017  52.731  10.310  0.00  0.00    +0.000 OA
ATOM      5  C10 UNL     1       1.973  51.580   9.868  0.00  0.00    +0.000 A 
ATOM      6  C11 UNL     1       1.450  50.248   9.907  0.00  0.00    +0.000 A 
ATOM      7  C12 UNL     1       2.310  49.164   9.688  0.00  0.00    +0.000 A 
ATOM      8  C13 UNL     1       3.669  49.358   9.433  0.00  0.00    +0.000 A 
ATOM      9  C14 UNL     1       4.187  50.649   9.393  0.00  0.00    +0.000 A 
ATOM     10  C15 UNL     1       3.359  51.752   9.606  0.00  0.00    +0.000 A 
ATOM     11  O2  UNL     1       3.900  52.965   9.558  0.00  0.00    +0.000 OA
ENDROOT
BRANCH   1  17
ATOM     12  C1  UNL     1       3.930  56.353  10.693  0.00  0.00    +0.000 A 
ATOM     13  C2  UNL     1       4.641  57.551  10.568  0.00  0.00    +0.000 A 
ATOM     14  C3  UNL     1       5.391  57.811   9.416  0.00  0.00    +0.000 A 
ATOM     15  C4  UNL     1       5.427  56.867   8.390  0.00  0.00    +0.000 A 
ATOM     16  C5  UNL     1       4.720  55.668   8.509  0.00  0.00    +0.000 A 
ATOM     17  C6  UNL     1       3.958  55.387   9.662  0.00  0.00    +0.000 A 
BRANCH  14  18
ATOM     18  O5  UNL     1       6.101  59.002   9.283  0.00  0.00    +0.000 OA
ATOM     19  H10 UNL     1       5.891  59.663   8.543  0.00  0.00    +0.000 HD
ENDBRANCH  14  18
ENDBRANCH   1  17
BRANCH   8  20
ATOM     20  O3  UNL     1       4.513  48.271   9.217  0.00  0.00    +0.000 OA
ATOM     21  H8  UNL     1       4.768  47.974   8.283  0.00  0.00    +0.000 HD
ENDBRANCH   8  20
BRANCH   6  22
ATOM     22  O4  UNL     1       0.111  49.927  10.152  0.00  0.00    +0.000 OA
ATOM     23  H9  UNL     1      -0.260  49.009  10.334  0.00  0.00    +0.000 HD
ENDBRANCH   6  22
TORSDOF 4
ENDMDL
