MODEL 1
REMARK VINA RESULT:      -2.3      0.000      0.000
REMARK  Name = .\Apigenin.pdb
REMARK  4 active torsions:
REMARK  status: ('A' for Active; 'I' for Inactive)
REMARK    1  A    between atoms: C3_3  and  O5_20
REMARK    2  A    between atoms: C6_6  and  C7_7
REMARK    3  A    between atoms: C11_12  and  O4_19
REMARK    4  A    between atoms: C13_14  and  O3_18
REMARK                            x       y       z     vdW  Elec       q    Type
REMARK                         _______ _______ _______ _____ _____    ______ ____
ROOT
ATOM      1  C7  UNL     1      -8.395  77.218  31.697  0.00  0.00    +0.000 A 
ATOM      2  C8  UNL     1      -7.977  78.262  30.857  0.00  0.00    +0.000 A 
ATOM      3  C9  UNL     1      -6.821  78.982  31.163  0.00  0.00    +0.000 A 
ATOM      4  O1  UNL     1      -6.483  79.910  30.385  0.00  0.00    +0.000 OA
ATOM      5  C10 UNL     1      -6.072  78.659  32.321  0.00  0.00    +0.000 A 
ATOM      6  C11 UNL     1      -4.874  79.322  32.739  0.00  0.00    +0.000 A 
ATOM      7  C12 UNL     1      -4.228  78.902  33.909  0.00  0.00    +0.000 A 
ATOM      8  C13 UNL     1      -4.729  77.848  34.675  0.00  0.00    +0.000 A 
ATOM      9  C14 UNL     1      -5.894  77.197  34.276  0.00  0.00    +0.000 A 
ATOM     10  C15 UNL     1      -6.563  77.590  33.116  0.00  0.00    +0.000 A 
ATOM     11  O2  UNL     1      -7.670  76.938  32.777  0.00  0.00    +0.000 OA
ENDROOT
BRANCH   1  17
ATOM     12  C1  UNL     1     -10.730  76.382  32.313  0.00  0.00    +0.000 A 
ATOM     13  C2  UNL     1     -11.853  75.599  32.026  0.00  0.00    +0.000 A 
ATOM     14  C3  UNL     1     -11.893  74.820  30.866  0.00  0.00    +0.000 A 
ATOM     15  C4  UNL     1     -10.805  74.827  29.993  0.00  0.00    +0.000 A 
ATOM     16  C5  UNL     1      -9.680  75.606  30.273  0.00  0.00    +0.000 A 
ATOM     17  C6  UNL     1      -9.620  76.400  31.439  0.00  0.00    +0.000 A 
BRANCH  14  18
ATOM     18  O5  UNL     1     -13.007  74.037  30.572  0.00  0.00    +0.000 OA
ATOM     19  H10 UNL     1     -13.004  73.034  30.723  0.00  0.00    +0.000 HD
ENDBRANCH  14  18
ENDBRANCH   1  17
BRANCH   8  20
ATOM     20  O3  UNL     1      -4.077  77.440  35.836  0.00  0.00    +0.000 OA
ATOM     21  H8  UNL     1      -4.434  77.671  36.755  0.00  0.00    +0.000 HD
ENDBRANCH   8  20
BRANCH   6  22
ATOM     22  O4  UNL     1      -4.276  80.387  32.058  0.00  0.00    +0.000 OA
ATOM     23  H9  UNL     1      -3.657  81.076  32.452  0.00  0.00    +0.000 HD
ENDBRANCH   6  22
TORSDOF 4
ENDMDL
