MODEL 1
REMARK VINA RESULT:      -5.5      0.000      0.000
REMARK  Name = .\Apigenin.pdb
REMARK  4 active torsions:
REMARK  status: ('A' for Active; 'I' for Inactive)
REMARK    1  A    between atoms: C3_3  and  O5_20
REMARK    2  A    between atoms: C6_6  and  C7_7
REMARK    3  A    between atoms: C11_12  and  O4_19
REMARK    4  A    between atoms: C13_14  and  O3_18
REMARK                            x       y       z     vdW  Elec       q    Type
REMARK                         _______ _______ _______ _____ _____    ______ ____
ROOT
ATOM      1  C7  UNL     1      -0.877  89.476 109.579  0.00  0.00    +0.000 A 
ATOM      2  C8  UNL     1      -0.010  90.461 110.078  0.00  0.00    +0.000 A 
ATOM      3  C9  UNL     1       0.712  90.224 111.248  0.00  0.00    +0.000 A 
ATOM      4  O1  UNL     1       1.476  91.132 111.661  0.00  0.00    +0.000 OA
ATOM      5  C10 UNL     1       0.568  88.992 111.931  0.00  0.00    +0.000 A 
ATOM      6  C11 UNL     1       1.251  88.632 113.137  0.00  0.00    +0.000 A 
ATOM      7  C12 UNL     1       1.018  87.377 113.712  0.00  0.00    +0.000 A 
ATOM      8  C13 UNL     1       0.132  86.468 113.132  0.00  0.00    +0.000 A 
ATOM      9  C14 UNL     1      -0.538  86.808 111.960  0.00  0.00    +0.000 A 
ATOM     10  C15 UNL     1      -0.329  88.051 111.360  0.00  0.00    +0.000 A 
ATOM     11  O2  UNL     1      -0.991  88.329 110.242  0.00  0.00    +0.000 OA
ENDROOT
BRANCH   1  17
ATOM     12  C1  UNL     1      -3.097  89.696 108.331  0.00  0.00    +0.000 A 
ATOM     13  C2  UNL     1      -3.806  89.863 107.137  0.00  0.00    +0.000 A 
ATOM     14  C3  UNL     1      -3.125  89.988 105.922  0.00  0.00    +0.000 A 
ATOM     15  C4  UNL     1      -1.730  89.946 105.906  0.00  0.00    +0.000 A 
ATOM     16  C5  UNL     1      -1.016  89.780 107.095  0.00  0.00    +0.000 A 
ATOM     17  C6  UNL     1      -1.684  89.652 108.331  0.00  0.00    +0.000 A 
BRANCH  14  18
ATOM     18  O5  UNL     1      -3.822  90.154 104.728  0.00  0.00    +0.000 OA
ATOM     19  H10 UNL     1      -3.398  90.601 103.924  0.00  0.00    +0.000 HD
ENDBRANCH  14  18
ENDBRANCH   1  17
BRANCH   8  20
ATOM     20  O3  UNL     1      -0.091  85.222 113.715  0.00  0.00    +0.000 OA
ATOM     21  H8  UNL     1       0.588  84.474 113.645  0.00  0.00    +0.000 HD
ENDBRANCH   8  20
BRANCH   6  22
ATOM     22  O4  UNL     1       2.161  89.455 113.811  0.00  0.00    +0.000 OA
ATOM     23  H9  UNL     1       2.305  89.497 114.806  0.00  0.00    +0.000 HD
ENDBRANCH   6  22
TORSDOF 4
ENDMDL
MODEL 2
REMARK VINA RESULT:      -5.3      0.741      1.301
REMARK  Name = .\Apigenin.pdb
REMARK  4 active torsions:
REMARK  status: ('A' for Active; 'I' for Inactive)
REMARK    1  A    between atoms: C3_3  and  O5_20
REMARK    2  A    between atoms: C6_6  and  C7_7
REMARK    3  A    between atoms: C11_12  and  O4_19
REMARK    4  A    between atoms: C13_14  and  O3_18
REMARK                            x       y       z     vdW  Elec       q    Type
REMARK                         _______ _______ _______ _____ _____    ______ ____
ROOT
ATOM      1  C7  UNL     1      -1.461  89.683 109.347  0.00  0.00    +0.000 A 
ATOM      2  C8  UNL     1      -0.832  90.793 109.933  0.00  0.00    +0.000 A 
ATOM      3  C9  UNL     1      -0.161  90.652 111.149  0.00  0.00    +0.000 A 
ATOM      4  O1  UNL     1       0.388  91.671 111.639  0.00  0.00    +0.000 OA
ATOM      5  C10 UNL     1      -0.118  89.390 111.791  0.00  0.00    +0.000 A 
ATOM      6  C11 UNL     1       0.534  89.120 113.036  0.00  0.00    +0.000 A 
ATOM      7  C12 UNL     1       0.502  87.823 113.563  0.00  0.00    +0.000 A 
ATOM      8  C13 UNL     1      -0.154  86.787 112.897  0.00  0.00    +0.000 A 
ATOM      9  C14 UNL     1      -0.792  87.039 111.686  0.00  0.00    +0.000 A 
ATOM     10  C15 UNL     1      -0.780  88.321 111.132  0.00  0.00    +0.000 A 
ATOM     11  O2  UNL     1      -1.402  88.512 109.973  0.00  0.00    +0.000 OA
ENDROOT
BRANCH   1  17
ATOM     12  C1  UNL     1      -1.566  90.072 106.824  0.00  0.00    +0.000 A 
ATOM     13  C2  UNL     1      -2.300  90.124 105.634  0.00  0.00    +0.000 A 
ATOM     14  C3  UNL     1      -3.673  89.858 105.638  0.00  0.00    +0.000 A 
ATOM     15  C4  UNL     1      -4.310  89.541 106.838  0.00  0.00    +0.000 A 
ATOM     16  C5  UNL     1      -3.583  89.488 108.030  0.00  0.00    +0.000 A 
ATOM     17  C6  UNL     1      -2.197  89.752 108.047  0.00  0.00    +0.000 A 
BRANCH  14  18
ATOM     18  O5  UNL     1      -4.412  89.908 104.458  0.00  0.00    +0.000 OA
ATOM     19  H10 UNL     1      -4.061  90.382 103.634  0.00  0.00    +0.000 HD
ENDBRANCH  14  18
ENDBRANCH   1  17
BRANCH   8  20
ATOM     20  O3  UNL     1      -0.179  85.501 113.432  0.00  0.00    +0.000 OA
ATOM     21  H8  UNL     1       0.505  84.802 113.166  0.00  0.00    +0.000 HD
ENDBRANCH   8  20
BRANCH   6  22
ATOM     22  O4  UNL     1       1.223  90.072 113.795  0.00  0.00    +0.000 OA
ATOM     23  H9  UNL     1       1.936  90.699 113.463  0.00  0.00    +0.000 HD
ENDBRANCH   6  22
TORSDOF 4
ENDMDL
MODEL 3
REMARK VINA RESULT:      -4.9      1.722      3.248
REMARK  Name = .\Apigenin.pdb
REMARK  4 active torsions:
REMARK  status: ('A' for Active; 'I' for Inactive)
REMARK    1  A    between atoms: C3_3  and  O5_20
REMARK    2  A    between atoms: C6_6  and  C7_7
REMARK    3  A    between atoms: C11_12  and  O4_19
REMARK    4  A    between atoms: C13_14  and  O3_18
REMARK                            x       y       z     vdW  Elec       q    Type
REMARK                         _______ _______ _______ _____ _____    ______ ____
ROOT
ATOM      1  C7  UNL     1      -1.431  89.698 109.258  0.00  0.00    +0.000 A 
ATOM      2  C8  UNL     1      -0.681  88.594 109.695  0.00  0.00    +0.000 A 
ATOM      3  C9  UNL     1      -0.001  88.653 110.913  0.00  0.00    +0.000 A 
ATOM      4  O1  UNL     1       0.659  87.644 111.267  0.00  0.00    +0.000 OA
ATOM      5  C10 UNL     1      -0.066  89.826 111.703  0.00  0.00    +0.000 A 
ATOM      6  C11 UNL     1       0.585  90.008 112.965  0.00  0.00    +0.000 A 
ATOM      7  C12 UNL     1       0.438  91.222 113.648  0.00  0.00    +0.000 A 
ATOM      8  C13 UNL     1      -0.334  92.260 113.122  0.00  0.00    +0.000 A 
ATOM      9  C14 UNL     1      -0.971  92.093 111.896  0.00  0.00    +0.000 A 
ATOM     10  C15 UNL     1      -0.846  90.896 111.188  0.00  0.00    +0.000 A 
ATOM     11  O2  UNL     1      -1.473  90.784 110.022  0.00  0.00    +0.000 OA
ENDROOT
BRANCH   1  17
ATOM     12  C1  UNL     1      -1.601  90.087 106.738  0.00  0.00    +0.000 A 
ATOM     13  C2  UNL     1      -2.352  90.085 105.558  0.00  0.00    +0.000 A 
ATOM     14  C3  UNL     1      -3.700  89.711 105.579  0.00  0.00    +0.000 A 
ATOM     15  C4  UNL     1      -4.294  89.340 106.786  0.00  0.00    +0.000 A 
ATOM     16  C5  UNL     1      -3.549  89.340 107.968  0.00  0.00    +0.000 A 
ATOM     17  C6  UNL     1      -2.188  89.713 107.968  0.00  0.00    +0.000 A 
BRANCH  14  18
ATOM     18  O5  UNL     1      -4.456  89.707 104.410  0.00  0.00    +0.000 OA
ATOM     19  H10 UNL     1      -5.437  89.451 104.414  0.00  0.00    +0.000 HD
ENDBRANCH  14  18
ENDBRANCH   1  17
BRANCH   8  20
ATOM     20  O3  UNL     1      -0.472  93.462 113.811  0.00  0.00    +0.000 OA
ATOM     21  H8  UNL     1       0.192  94.218 113.698  0.00  0.00    +0.000 HD
ENDBRANCH   8  20
BRANCH   6  22
ATOM     22  O4  UNL     1       1.383  89.045 113.594  0.00  0.00    +0.000 OA
ATOM     23  H9  UNL     1       1.839  89.138 114.486  0.00  0.00    +0.000 HD
ENDBRANCH   6  22
TORSDOF 4
ENDMDL
MODEL 4
REMARK VINA RESULT:      -4.9      1.607      3.039
REMARK  Name = .\Apigenin.pdb
REMARK  4 active torsions:
REMARK  status: ('A' for Active; 'I' for Inactive)
REMARK    1  A    between atoms: C3_3  and  O5_20
REMARK    2  A    between atoms: C6_6  and  C7_7
REMARK    3  A    between atoms: C11_12  and  O4_19
REMARK    4  A    between atoms: C13_14  and  O3_18
REMARK                            x       y       z     vdW  Elec       q    Type
REMARK                         _______ _______ _______ _____ _____    ______ ____
ROOT
ATOM      1  C7  UNL     1      -0.093  89.159 109.924  0.00  0.00    +0.000 A 
ATOM      2  C8  UNL     1       0.173  87.851 110.361  0.00  0.00    +0.000 A 
ATOM      3  C9  UNL     1       1.030  87.640 111.442  0.00  0.00    +0.000 A 
ATOM      4  O1  UNL     1       1.242  86.454 111.801  0.00  0.00    +0.000 OA
ATOM      5  C10 UNL     1       1.632  88.743 112.094  0.00  0.00    +0.000 A 
ATOM      6  C11 UNL     1       2.526  88.655 113.209  0.00  0.00    +0.000 A 
ATOM      7  C12 UNL     1       3.054  89.828 113.763  0.00  0.00    +0.000 A 
ATOM      8  C13 UNL     1       2.723  91.083 113.250  0.00  0.00    +0.000 A 
ATOM      9  C14 UNL     1       1.854  91.180 112.167  0.00  0.00    +0.000 A 
ATOM     10  C15 UNL     1       1.311  90.031 111.589  0.00  0.00    +0.000 A 
ATOM     11  O2  UNL     1       0.487  90.174 110.557  0.00  0.00    +0.000 OA
ENDROOT
BRANCH   1  17
ATOM     12  C1  UNL     1      -2.362  89.805 108.943  0.00  0.00    +0.000 A 
ATOM     13  C2  UNL     1      -3.170  90.087 107.836  0.00  0.00    +0.000 A 
ATOM     14  C3  UNL     1      -2.638  90.039 106.544  0.00  0.00    +0.000 A 
ATOM     15  C4  UNL     1      -1.295  89.708 106.362  0.00  0.00    +0.000 A 
ATOM     16  C5  UNL     1      -0.483  89.425 107.463  0.00  0.00    +0.000 A 
ATOM     17  C6  UNL     1      -1.000  89.469 108.775  0.00  0.00    +0.000 A 
BRANCH  14  18
ATOM     18  O5  UNL     1      -3.435  90.317 105.436  0.00  0.00    +0.000 OA
ATOM     19  H10 UNL     1      -3.407  91.221 104.977  0.00  0.00    +0.000 HD
ENDBRANCH  14  18
ENDBRANCH   1  17
BRANCH   8  20
ATOM     20  O3  UNL     1       3.254  92.242 113.811  0.00  0.00    +0.000 OA
ATOM     21  H8  UNL     1       3.281  92.383 114.814  0.00  0.00    +0.000 HD
ENDBRANCH   8  20
BRANCH   6  22
ATOM     22  O4  UNL     1       2.932  87.458 113.810  0.00  0.00    +0.000 OA
ATOM     23  H9  UNL     1       2.331  86.725 114.148  0.00  0.00    +0.000 HD
ENDBRANCH   6  22
TORSDOF 4
ENDMDL
MODEL 5
REMARK VINA RESULT:      -4.2      1.574      2.095
REMARK  Name = .\Apigenin.pdb
REMARK  4 active torsions:
REMARK  status: ('A' for Active; 'I' for Inactive)
REMARK    1  A    between atoms: C3_3  and  O5_20
REMARK    2  A    between atoms: C6_6  and  C7_7
REMARK    3  A    between atoms: C11_12  and  O4_19
REMARK    4  A    between atoms: C13_14  and  O3_18
REMARK                            x       y       z     vdW  Elec       q    Type
REMARK                         _______ _______ _______ _____ _____    ______ ____
ROOT
ATOM      1  C7  UNL     1      -0.947  89.685 107.755  0.00  0.00    +0.000 A 
ATOM      2  C8  UNL     1       0.349  90.199 107.590  0.00  0.00    +0.000 A 
ATOM      3  C9  UNL     1       1.293  90.047 108.607  0.00  0.00    +0.000 A 
ATOM      4  O1  UNL     1       2.441  90.522 108.419  0.00  0.00    +0.000 OA
ATOM      5  C10 UNL     1       0.942  89.376 109.804  0.00  0.00    +0.000 A 
ATOM      6  C11 UNL     1       1.818  89.159 110.915  0.00  0.00    +0.000 A 
ATOM      7  C12 UNL     1       1.344  88.478 112.043  0.00  0.00    +0.000 A 
ATOM      8  C13 UNL     1       0.031  88.005 112.105  0.00  0.00    +0.000 A 
ATOM      9  C14 UNL     1      -0.829  88.212 111.030  0.00  0.00    +0.000 A 
ATOM     10  C15 UNL     1      -0.389  88.887 109.890  0.00  0.00    +0.000 A 
ATOM     11  O2  UNL     1      -1.246  89.060 108.890  0.00  0.00    +0.000 OA
ENDROOT
BRANCH   1  17
ATOM     12  C1  UNL     1      -3.282  89.195 106.839  0.00  0.00    +0.000 A 
ATOM     13  C2  UNL     1      -4.246  89.337 105.836  0.00  0.00    +0.000 A 
ATOM     14  C3  UNL     1      -3.967  90.088 104.690  0.00  0.00    +0.000 A 
ATOM     15  C4  UNL     1      -2.720  90.697 104.551  0.00  0.00    +0.000 A 
ATOM     16  C5  UNL     1      -1.752  90.558 105.549  0.00  0.00    +0.000 A 
ATOM     17  C6  UNL     1      -2.014  89.805 106.713  0.00  0.00    +0.000 A 
BRANCH  14  18
ATOM     18  O5  UNL     1      -4.921  90.235 103.686  0.00  0.00    +0.000 OA
ATOM     19  H10 UNL     1      -5.147  91.144 103.299  0.00  0.00    +0.000 HD
ENDBRANCH  14  18
ENDBRANCH   1  17
BRANCH   8  20
ATOM     20  O3  UNL     1      -0.428  87.330 113.233  0.00  0.00    +0.000 OA
ATOM     21  H8  UNL     1      -0.274  86.336 113.356  0.00  0.00    +0.000 HD
ENDBRANCH   8  20
BRANCH   6  22
ATOM     22  O4  UNL     1       3.150  89.582 110.972  0.00  0.00    +0.000 OA
ATOM     23  H9  UNL     1       3.676  89.792 111.804  0.00  0.00    +0.000 HD
ENDBRANCH   6  22
TORSDOF 4
ENDMDL
MODEL 6
REMARK VINA RESULT:      -2.6      2.454      2.979
REMARK  Name = .\Apigenin.pdb
REMARK  4 active torsions:
REMARK  status: ('A' for Active; 'I' for Inactive)
REMARK    1  A    between atoms: C3_3  and  O5_20
REMARK    2  A    between atoms: C6_6  and  C7_7
REMARK    3  A    between atoms: C11_12  and  O4_19
REMARK    4  A    between atoms: C13_14  and  O3_18
REMARK                            x       y       z     vdW  Elec       q    Type
REMARK                         _______ _______ _______ _____ _____    ______ ____
ROOT
ATOM      1  C7  UNL     1      -0.860  90.068 107.894  0.00  0.00    +0.000 A 
ATOM      2  C8  UNL     1       0.517  89.909 107.671  0.00  0.00    +0.000 A 
ATOM      3  C9  UNL     1       1.410  89.989 108.741  0.00  0.00    +0.000 A 
ATOM      4  O1  UNL     1       2.634  89.842 108.497  0.00  0.00    +0.000 OA
ATOM      5  C10 UNL     1       0.925  90.233 110.049  0.00  0.00    +0.000 A 
ATOM      6  C11 UNL     1       1.738  90.337 111.223  0.00  0.00    +0.000 A 
ATOM      7  C12 UNL     1       1.130  90.580 112.461  0.00  0.00    +0.000 A 
ATOM      8  C13 UNL     1      -0.254  90.723 112.573  0.00  0.00    +0.000 A 
ATOM      9  C14 UNL     1      -1.053  90.623 111.438  0.00  0.00    +0.000 A 
ATOM     10  C15 UNL     1      -0.480  90.381 110.187  0.00  0.00    +0.000 A 
ATOM     11  O2  UNL     1      -1.284  90.294 109.133  0.00  0.00    +0.000 OA
ENDROOT
BRANCH   1  17
ATOM     12  C1  UNL     1      -1.605  90.377 105.469  0.00  0.00    +0.000 A 
ATOM     13  C2  UNL     1      -2.594  90.289 104.483  0.00  0.00    +0.000 A 
ATOM     14  C3  UNL     1      -3.872  89.820 104.804  0.00  0.00    +0.000 A 
ATOM     15  C4  UNL     1      -4.157  89.439 106.115  0.00  0.00    +0.000 A 
ATOM     16  C5  UNL     1      -3.175  89.524 107.104  0.00  0.00    +0.000 A 
ATOM     17  C6  UNL     1      -1.879  89.994 106.801  0.00  0.00    +0.000 A 
BRANCH  14  18
ATOM     18  O5  UNL     1      -4.862  89.730 103.829  0.00  0.00    +0.000 OA
ATOM     19  H10 UNL     1      -4.685  89.292 102.932  0.00  0.00    +0.000 HD
ENDBRANCH  14  18
ENDBRANCH   1  17
BRANCH   8  20
ATOM     20  O3  UNL     1      -0.846  90.964 113.811  0.00  0.00    +0.000 OA
ATOM     21  H8  UNL     1      -0.294  91.041 114.657  0.00  0.00    +0.000 HD
ENDBRANCH   8  20
BRANCH   6  22
ATOM     22  O4  UNL     1       3.131  90.213 111.239  0.00  0.00    +0.000 OA
ATOM     23  H9  UNL     1       3.657  89.428 111.584  0.00  0.00    +0.000 HD
ENDBRANCH   6  22
TORSDOF 4
ENDMDL
