MODEL 1
REMARK VINA RESULT:      -6.5      0.000      0.000
REMARK  Name = .\Apigenin.pdb
REMARK  4 active torsions:
REMARK  status: ('A' for Active; 'I' for Inactive)
REMARK    1  A    between atoms: C3_3  and  O5_20
REMARK    2  A    between atoms: C6_6  and  C7_7
REMARK    3  A    between atoms: C11_12  and  O4_19
REMARK    4  A    between atoms: C13_14  and  O3_18
REMARK                            x       y       z     vdW  Elec       q    Type
REMARK                         _______ _______ _______ _____ _____    ______ ____
ROOT
ATOM      1  C7  UNL     1       1.582  47.726   2.390  0.00  0.00    +0.000 A 
ATOM      2  C8  UNL     1       0.416  48.508   2.409  0.00  0.00    +0.000 A 
ATOM      3  C9  UNL     1      -0.325  48.624   3.586  0.00  0.00    +0.000 A 
ATOM      4  O1  UNL     1      -1.363  49.333   3.559  0.00  0.00    +0.000 OA
ATOM      5  C10 UNL     1       0.099  47.954   4.758  0.00  0.00    +0.000 A 
ATOM      6  C11 UNL     1      -0.573  47.995   6.022  0.00  0.00    +0.000 A 
ATOM      7  C12 UNL     1      -0.046  47.284   7.106  0.00  0.00    +0.000 A 
ATOM      8  C13 UNL     1       1.126  46.535   6.980  0.00  0.00    +0.000 A 
ATOM      9  C14 UNL     1       1.787  46.488   5.756  0.00  0.00    +0.000 A 
ATOM     10  C15 UNL     1       1.288  47.184   4.654  0.00  0.00    +0.000 A 
ATOM     11  O2  UNL     1       1.955  47.109   3.507  0.00  0.00    +0.000 OA
ENDROOT
BRANCH   1  17
ATOM     12  C1  UNL     1       1.915  47.638  -0.142  0.00  0.00    +0.000 A 
ATOM     13  C2  UNL     1       2.750  47.467  -1.250  0.00  0.00    +0.000 A 
ATOM     14  C3  UNL     1       4.113  47.207  -1.074  0.00  0.00    +0.000 A 
ATOM     15  C4  UNL     1       4.638  47.119   0.216  0.00  0.00    +0.000 A 
ATOM     16  C5  UNL     1       3.808  47.289   1.327  0.00  0.00    +0.000 A 
ATOM     17  C6  UNL     1       2.431  47.552   1.171  0.00  0.00    +0.000 A 
BRANCH  14  18
ATOM     18  O5  UNL     1       4.953  47.035  -2.172  0.00  0.00    +0.000 OA
ATOM     19  H10 UNL     1       5.347  46.129  -2.401  0.00  0.00    +0.000 HD
ENDBRANCH  14  18
ENDBRANCH   1  17
BRANCH   8  20
ATOM     20  O3  UNL     1       1.640  45.832   8.067  0.00  0.00    +0.000 OA
ATOM     21  H8  UNL     1       1.967  46.307   8.900  0.00  0.00    +0.000 HD
ENDBRANCH   8  20
BRANCH   6  22
ATOM     22  O4  UNL     1      -1.751  48.709   6.272  0.00  0.00    +0.000 OA
ATOM     23  H9  UNL     1      -2.195  49.366   5.653  0.00  0.00    +0.000 HD
ENDBRANCH   6  22
TORSDOF 4
ENDMDL
MODEL 2
REMARK VINA RESULT:      -6.4      1.145      2.928
REMARK  Name = .\Apigenin.pdb
REMARK  4 active torsions:
REMARK  status: ('A' for Active; 'I' for Inactive)
REMARK    1  A    between atoms: C3_3  and  O5_20
REMARK    2  A    between atoms: C6_6  and  C7_7
REMARK    3  A    between atoms: C11_12  and  O4_19
REMARK    4  A    between atoms: C13_14  and  O3_18
REMARK                            x       y       z     vdW  Elec       q    Type
REMARK                         _______ _______ _______ _____ _____    ______ ____
ROOT
ATOM      1  C7  UNL     1       2.302  47.252   2.572  0.00  0.00    +0.000 A 
ATOM      2  C8  UNL     1       2.861  46.646   3.708  0.00  0.00    +0.000 A 
ATOM      3  C9  UNL     1       2.176  46.682   4.924  0.00  0.00    +0.000 A 
ATOM      4  O1  UNL     1       2.712  46.128   5.917  0.00  0.00    +0.000 OA
ATOM      5  C10 UNL     1       0.921  47.332   5.010  0.00  0.00    +0.000 A 
ATOM      6  C11 UNL     1       0.125  47.436   6.195  0.00  0.00    +0.000 A 
ATOM      7  C12 UNL     1      -1.103  48.107   6.144  0.00  0.00    +0.000 A 
ATOM      8  C13 UNL     1      -1.568  48.677   4.957  0.00  0.00    +0.000 A 
ATOM      9  C14 UNL     1      -0.802  48.581   3.799  0.00  0.00    +0.000 A 
ATOM     10  C15 UNL     1       0.427  47.919   3.815  0.00  0.00    +0.000 A 
ATOM     11  O2  UNL     1       1.122  47.854   2.683  0.00  0.00    +0.000 OA
ENDROOT
BRANCH   1  17
ATOM     12  C1  UNL     1       4.354  47.019   1.067  0.00  0.00    +0.000 A 
ATOM     13  C2  UNL     1       4.933  47.033  -0.206  0.00  0.00    +0.000 A 
ATOM     14  C3  UNL     1       4.148  47.283  -1.336  0.00  0.00    +0.000 A 
ATOM     15  C4  UNL     1       2.781  47.520  -1.188  0.00  0.00    +0.000 A 
ATOM     16  C5  UNL     1       2.197  47.507   0.081  0.00  0.00    +0.000 A 
ATOM     17  C6  UNL     1       2.971  47.256   1.233  0.00  0.00    +0.000 A 
BRANCH  14  18
ATOM     18  O5  UNL     1       4.716  47.300  -2.608  0.00  0.00    +0.000 OA
ATOM     19  H10 UNL     1       4.213  46.953  -3.417  0.00  0.00    +0.000 HD
ENDBRANCH  14  18
ENDBRANCH   1  17
BRANCH   8  20
ATOM     20  O3  UNL     1      -2.791  49.342   4.920  0.00  0.00    +0.000 OA
ATOM     21  H8  UNL     1      -3.021  49.990   4.176  0.00  0.00    +0.000 HD
ENDBRANCH   8  20
BRANCH   6  22
ATOM     22  O4  UNL     1       0.482  46.908   7.441  0.00  0.00    +0.000 OA
ATOM     23  H9  UNL     1       1.387  46.554   7.703  0.00  0.00    +0.000 HD
ENDBRANCH   6  22
TORSDOF 4
ENDMDL
MODEL 3
REMARK VINA RESULT:      -6.4      2.699      3.237
REMARK  Name = .\Apigenin.pdb
REMARK  4 active torsions:
REMARK  status: ('A' for Active; 'I' for Inactive)
REMARK    1  A    between atoms: C3_3  and  O5_20
REMARK    2  A    between atoms: C6_6  and  C7_7
REMARK    3  A    between atoms: C11_12  and  O4_19
REMARK    4  A    between atoms: C13_14  and  O3_18
REMARK                            x       y       z     vdW  Elec       q    Type
REMARK                         _______ _______ _______ _____ _____    ______ ____
ROOT
ATOM      1  C7  UNL     1       1.355  48.498   4.375  0.00  0.00    +0.000 A 
ATOM      2  C8  UNL     1       0.141  48.477   5.080  0.00  0.00    +0.000 A 
ATOM      3  C9  UNL     1       0.118  48.814   6.434  0.00  0.00    +0.000 A 
ATOM      4  O1  UNL     1      -0.990  48.781   7.029  0.00  0.00    +0.000 OA
ATOM      5  C10 UNL     1       1.317  49.175   7.095  0.00  0.00    +0.000 A 
ATOM      6  C11 UNL     1       1.421  49.539   8.475  0.00  0.00    +0.000 A 
ATOM      7  C12 UNL     1       2.672  49.876   9.006  0.00  0.00    +0.000 A 
ATOM      8  C13 UNL     1       3.822  49.866   8.214  0.00  0.00    +0.000 A 
ATOM      9  C14 UNL     1       3.731  49.513   6.870  0.00  0.00    +0.000 A 
ATOM     10  C15 UNL     1       2.500  49.171   6.309  0.00  0.00    +0.000 A 
ATOM     11  O2  UNL     1       2.464  48.842   5.022  0.00  0.00    +0.000 OA
ENDROOT
BRANCH   1  17
ATOM     12  C1  UNL     1       0.383  48.277   2.021  0.00  0.00    +0.000 A 
ATOM     13  C2  UNL     1       0.536  47.940   0.673  0.00  0.00    +0.000 A 
ATOM     14  C3  UNL     1       1.764  47.472   0.196  0.00  0.00    +0.000 A 
ATOM     15  C4  UNL     1       2.841  47.342   1.074  0.00  0.00    +0.000 A 
ATOM     16  C5  UNL     1       2.695  47.677   2.423  0.00  0.00    +0.000 A 
ATOM     17  C6  UNL     1       1.464  48.152   2.923  0.00  0.00    +0.000 A 
BRANCH  14  18
ATOM     18  O5  UNL     1       1.926  47.133  -1.145  0.00  0.00    +0.000 OA
ATOM     19  H10 UNL     1       2.520  46.363  -1.429  0.00  0.00    +0.000 HD
ENDBRANCH  14  18
ENDBRANCH   1  17
BRANCH   8  20
ATOM     20  O3  UNL     1       5.060  50.204   8.754  0.00  0.00    +0.000 OA
ATOM     21  H8  UNL     1       5.165  50.977   9.400  0.00  0.00    +0.000 HD
ENDBRANCH   8  20
BRANCH   6  22
ATOM     22  O4  UNL     1       0.345  49.587   9.368  0.00  0.00    +0.000 OA
ATOM     23  H9  UNL     1       0.109  48.893  10.057  0.00  0.00    +0.000 HD
ENDBRANCH   6  22
TORSDOF 4
ENDMDL
MODEL 4
REMARK VINA RESULT:      -6.1      2.004      7.441
REMARK  Name = .\Apigenin.pdb
REMARK  4 active torsions:
REMARK  status: ('A' for Active; 'I' for Inactive)
REMARK    1  A    between atoms: C3_3  and  O5_20
REMARK    2  A    between atoms: C6_6  and  C7_7
REMARK    3  A    between atoms: C11_12  and  O4_19
REMARK    4  A    between atoms: C13_14  and  O3_18
REMARK                            x       y       z     vdW  Elec       q    Type
REMARK                         _______ _______ _______ _____ _____    ______ ____
ROOT
ATOM      1  C7  UNL     1       2.290  48.246   2.123  0.00  0.00    +0.000 A 
ATOM      2  C8  UNL     1       3.230  47.204   2.119  0.00  0.00    +0.000 A 
ATOM      3  C9  UNL     1       4.160  47.108   1.082  0.00  0.00    +0.000 A 
ATOM      4  O1  UNL     1       4.983  46.159   1.117  0.00  0.00    +0.000 OA
ATOM      5  C10 UNL     1       4.152  48.062   0.036  0.00  0.00    +0.000 A 
ATOM      6  C11 UNL     1       5.051  48.071  -1.079  0.00  0.00    +0.000 A 
ATOM      7  C12 UNL     1       4.937  49.075  -2.048  0.00  0.00    +0.000 A 
ATOM      8  C13 UNL     1       3.962  50.070  -1.948  0.00  0.00    +0.000 A 
ATOM      9  C14 UNL     1       3.084  50.070  -0.869  0.00  0.00    +0.000 A 
ATOM     10  C15 UNL     1       3.169  49.084   0.115  0.00  0.00    +0.000 A 
ATOM     11  O2  UNL     1       2.309  49.127   1.127  0.00  0.00    +0.000 OA
ENDROOT
BRANCH   1  17
ATOM     12  C1  UNL     1      -0.127  48.353   2.947  0.00  0.00    +0.000 A 
ATOM     13  C2  UNL     1      -1.047  48.521   3.987  0.00  0.00    +0.000 A 
ATOM     14  C3  UNL     1      -0.604  48.756   5.292  0.00  0.00    +0.000 A 
ATOM     15  C4  UNL     1       0.764  48.824   5.554  0.00  0.00    +0.000 A 
ATOM     16  C5  UNL     1       1.689  48.658   4.520  0.00  0.00    +0.000 A 
ATOM     17  C6  UNL     1       1.263  48.418   3.197  0.00  0.00    +0.000 A 
BRANCH  14  18
ATOM     18  O5  UNL     1      -1.514  48.925   6.333  0.00  0.00    +0.000 OA
ATOM     19  H10 UNL     1      -2.043  48.145   6.706  0.00  0.00    +0.000 HD
ENDBRANCH  14  18
ENDBRANCH   1  17
BRANCH   8  20
ATOM     20  O3  UNL     1       3.859  51.063  -2.920  0.00  0.00    +0.000 OA
ATOM     21  H8  UNL     1       4.367  51.936  -2.842  0.00  0.00    +0.000 HD
ENDBRANCH   8  20
BRANCH   6  22
ATOM     22  O4  UNL     1       6.066  47.131  -1.289  0.00  0.00    +0.000 OA
ATOM     23  H9  UNL     1       6.344  46.739  -2.173  0.00  0.00    +0.000 HD
ENDBRANCH   6  22
TORSDOF 4
ENDMDL
MODEL 5
REMARK VINA RESULT:      -6.0      2.091      7.532
REMARK  Name = .\Apigenin.pdb
REMARK  4 active torsions:
REMARK  status: ('A' for Active; 'I' for Inactive)
REMARK    1  A    between atoms: C3_3  and  O5_20
REMARK    2  A    between atoms: C6_6  and  C7_7
REMARK    3  A    between atoms: C11_12  and  O4_19
REMARK    4  A    between atoms: C13_14  and  O3_18
REMARK                            x       y       z     vdW  Elec       q    Type
REMARK                         _______ _______ _______ _____ _____    ______ ____
ROOT
ATOM      1  C7  UNL     1       2.390  48.578   0.501  0.00  0.00    +0.000 A 
ATOM      2  C8  UNL     1       2.529  49.835  -0.108  0.00  0.00    +0.000 A 
ATOM      3  C9  UNL     1       3.329  49.975  -1.243  0.00  0.00    +0.000 A 
ATOM      4  O1  UNL     1       3.427  51.118  -1.756  0.00  0.00    +0.000 OA
ATOM      5  C10 UNL     1       4.001  48.849  -1.777  0.00  0.00    +0.000 A 
ATOM      6  C11 UNL     1       4.847  48.865  -2.932  0.00  0.00    +0.000 A 
ATOM      7  C12 UNL     1       5.454  47.677  -3.358  0.00  0.00    +0.000 A 
ATOM      8  C13 UNL     1       5.248  46.475  -2.678  0.00  0.00    +0.000 A 
ATOM      9  C14 UNL     1       4.427  46.449  -1.554  0.00  0.00    +0.000 A 
ATOM     10  C15 UNL     1       3.807  47.615  -1.102  0.00  0.00    +0.000 A 
ATOM     11  O2  UNL     1       3.033  47.540  -0.025  0.00  0.00    +0.000 OA
ENDROOT
BRANCH   1  17
ATOM     12  C1  UNL     1       0.138  48.353   1.687  0.00  0.00    +0.000 A 
ATOM     13  C2  UNL     1      -0.602  48.131   2.853  0.00  0.00    +0.000 A 
ATOM     14  C3  UNL     1       0.048  47.897   4.069  0.00  0.00    +0.000 A 
ATOM     15  C4  UNL     1       1.443  47.887   4.115  0.00  0.00    +0.000 A 
ATOM     16  C5  UNL     1       2.188  48.109   2.954  0.00  0.00    +0.000 A 
ATOM     17  C6  UNL     1       1.551  48.346   1.717  0.00  0.00    +0.000 A 
BRANCH  14  18
ATOM     18  O5  UNL     1      -0.680  47.675   5.235  0.00  0.00    +0.000 OA
ATOM     19  H10 UNL     1      -0.230  47.374   6.092  0.00  0.00    +0.000 HD
ENDBRANCH  14  18
ENDBRANCH   1  17
BRANCH   8  20
ATOM     20  O3  UNL     1       5.857  45.300  -3.112  0.00  0.00    +0.000 OA
ATOM     21  H8  UNL     1       6.862  45.177  -3.073  0.00  0.00    +0.000 HD
ENDBRANCH   8  20
BRANCH   6  22
ATOM     22  O4  UNL     1       5.129  50.004  -3.695  0.00  0.00    +0.000 OA
ATOM     23  H9  UNL     1       4.923  50.135  -4.671  0.00  0.00    +0.000 HD
ENDBRANCH   6  22
TORSDOF 4
ENDMDL
MODEL 6
REMARK VINA RESULT:      -6.0      1.663      2.351
REMARK  Name = .\Apigenin.pdb
REMARK  4 active torsions:
REMARK  status: ('A' for Active; 'I' for Inactive)
REMARK    1  A    between atoms: C3_3  and  O5_20
REMARK    2  A    between atoms: C6_6  and  C7_7
REMARK    3  A    between atoms: C11_12  and  O4_19
REMARK    4  A    between atoms: C13_14  and  O3_18
REMARK                            x       y       z     vdW  Elec       q    Type
REMARK                         _______ _______ _______ _____ _____    ______ ____
ROOT
ATOM      1  C7  UNL     1       1.777  47.886   3.859  0.00  0.00    +0.000 A 
ATOM      2  C8  UNL     1       0.895  48.849   4.374  0.00  0.00    +0.000 A 
ATOM      3  C9  UNL     1       0.705  48.953   5.753  0.00  0.00    +0.000 A 
ATOM      4  O1  UNL     1      -0.094  49.828   6.172  0.00  0.00    +0.000 OA
ATOM      5  C10 UNL     1       1.401  48.085   6.630  0.00  0.00    +0.000 A 
ATOM      6  C11 UNL     1       1.290  48.093   8.057  0.00  0.00    +0.000 A 
ATOM      7  C12 UNL     1       2.036  47.179   8.811  0.00  0.00    +0.000 A 
ATOM      8  C13 UNL     1       2.888  46.258   8.196  0.00  0.00    +0.000 A 
ATOM      9  C14 UNL     1       3.003  46.243   6.809  0.00  0.00    +0.000 A 
ATOM     10  C15 UNL     1       2.273  47.140   6.028  0.00  0.00    +0.000 A 
ATOM     11  O2  UNL     1       2.416  47.087   4.708  0.00  0.00    +0.000 OA
ENDROOT
BRANCH   1  17
ATOM     12  C1  UNL     1       3.305  47.369   1.877  0.00  0.00    +0.000 A 
ATOM     13  C2  UNL     1       3.496  47.219   0.499  0.00  0.00    +0.000 A 
ATOM     14  C3  UNL     1       2.430  47.408  -0.387  0.00  0.00    +0.000 A 
ATOM     15  C4  UNL     1       1.172  47.749   0.111  0.00  0.00    +0.000 A 
ATOM     16  C5  UNL     1       0.975  47.900   1.486  0.00  0.00    +0.000 A 
ATOM     17  C6  UNL     1       2.036  47.713   2.396  0.00  0.00    +0.000 A 
BRANCH  14  18
ATOM     18  O5  UNL     1       2.611  47.262  -1.760  0.00  0.00    +0.000 OA
ATOM     19  H10 UNL     1       2.246  47.940  -2.418  0.00  0.00    +0.000 HD
ENDBRANCH  14  18
ENDBRANCH   1  17
BRANCH   8  20
ATOM     20  O3  UNL     1       3.625  45.354   8.958  0.00  0.00    +0.000 OA
ATOM     21  H8  UNL     1       4.548  45.049   8.674  0.00  0.00    +0.000 HD
ENDBRANCH   8  20
BRANCH   6  22
ATOM     22  O4  UNL     1       0.473  48.964   8.786  0.00  0.00    +0.000 OA
ATOM     23  H9  UNL     1      -0.498  48.825   9.011  0.00  0.00    +0.000 HD
ENDBRANCH   6  22
TORSDOF 4
ENDMDL
MODEL 7
REMARK VINA RESULT:      -5.9      1.973      2.663
REMARK  Name = .\Apigenin.pdb
REMARK  4 active torsions:
REMARK  status: ('A' for Active; 'I' for Inactive)
REMARK    1  A    between atoms: C3_3  and  O5_20
REMARK    2  A    between atoms: C6_6  and  C7_7
REMARK    3  A    between atoms: C11_12  and  O4_19
REMARK    4  A    between atoms: C13_14  and  O3_18
REMARK                            x       y       z     vdW  Elec       q    Type
REMARK                         _______ _______ _______ _____ _____    ______ ____
ROOT
ATOM      1  C7  UNL     1       2.729  48.391   2.944  0.00  0.00    +0.000 A 
ATOM      2  C8  UNL     1       3.494  49.281   3.713  0.00  0.00    +0.000 A 
ATOM      3  C9  UNL     1       3.100  49.592   5.015  0.00  0.00    +0.000 A 
ATOM      4  O1  UNL     1       3.812  50.394   5.670  0.00  0.00    +0.000 OA
ATOM      5  C10 UNL     1       1.928  49.010   5.558  0.00  0.00    +0.000 A 
ATOM      6  C11 UNL     1       1.422  49.249   6.876  0.00  0.00    +0.000 A 
ATOM      7  C12 UNL     1       0.249  48.607   7.290  0.00  0.00    +0.000 A 
ATOM      8  C13 UNL     1      -0.438  47.736   6.442  0.00  0.00    +0.000 A 
ATOM      9  C14 UNL     1       0.046  47.496   5.159  0.00  0.00    +0.000 A 
ATOM     10  C15 UNL     1       1.212  48.120   4.713  0.00  0.00    +0.000 A 
ATOM     11  O2  UNL     1       1.635  47.860   3.480  0.00  0.00    +0.000 OA
ENDROOT
BRANCH   1  17
ATOM     12  C1  UNL     1       4.388  47.616   1.161  0.00  0.00    +0.000 A 
ATOM     13  C2  UNL     1       4.670  47.266  -0.163  0.00  0.00    +0.000 A 
ATOM     14  C3  UNL     1       3.662  47.298  -1.133  0.00  0.00    +0.000 A 
ATOM     15  C4  UNL     1       2.370  47.681  -0.772  0.00  0.00    +0.000 A 
ATOM     16  C5  UNL     1       2.082  48.032   0.550  0.00  0.00    +0.000 A 
ATOM     17  C6  UNL     1       3.085  48.006   1.542  0.00  0.00    +0.000 A 
BRANCH  14  18
ATOM     18  O5  UNL     1       3.934  46.951  -2.454  0.00  0.00    +0.000 OA
ATOM     19  H10 UNL     1       4.333  47.618  -3.105  0.00  0.00    +0.000 HD
ENDBRANCH  14  18
ENDBRANCH   1  17
BRANCH   8  20
ATOM     20  O3  UNL     1      -1.604  47.103   6.866  0.00  0.00    +0.000 OA
ATOM     21  H8  UNL     1      -1.792  46.939   7.848  0.00  0.00    +0.000 HD
ENDBRANCH   8  20
BRANCH   6  22
ATOM     22  O4  UNL     1       2.019  50.098   7.814  0.00  0.00    +0.000 OA
ATOM     23  H9  UNL     1       2.995  50.334   7.870  0.00  0.00    +0.000 HD
ENDBRANCH   6  22
TORSDOF 4
ENDMDL
MODEL 8
REMARK VINA RESULT:      -5.9      1.754      6.713
REMARK  Name = .\Apigenin.pdb
REMARK  4 active torsions:
REMARK  status: ('A' for Active; 'I' for Inactive)
REMARK    1  A    between atoms: C3_3  and  O5_20
REMARK    2  A    between atoms: C6_6  and  C7_7
REMARK    3  A    between atoms: C11_12  and  O4_19
REMARK    4  A    between atoms: C13_14  and  O3_18
REMARK                            x       y       z     vdW  Elec       q    Type
REMARK                         _______ _______ _______ _____ _____    ______ ____
ROOT
ATOM      1  C7  UNL     1       1.209  48.236   2.385  0.00  0.00    +0.000 A 
ATOM      2  C8  UNL     1       0.886  49.231   1.449  0.00  0.00    +0.000 A 
ATOM      3  C9  UNL     1       1.674  49.394   0.308  0.00  0.00    +0.000 A 
ATOM      4  O1  UNL     1       1.351  50.297  -0.504  0.00  0.00    +0.000 OA
ATOM      5  C10 UNL     1       2.797  48.558   0.098  0.00  0.00    +0.000 A 
ATOM      6  C11 UNL     1       3.678  48.629  -1.028  0.00  0.00    +0.000 A 
ATOM      7  C12 UNL     1       4.756  47.739  -1.115  0.00  0.00    +0.000 A 
ATOM      8  C13 UNL     1       4.988  46.783  -0.124  0.00  0.00    +0.000 A 
ATOM      9  C14 UNL     1       4.137  46.706   0.974  0.00  0.00    +0.000 A 
ATOM     10  C15 UNL     1       3.053  47.578   1.093  0.00  0.00    +0.000 A 
ATOM     11  O2  UNL     1       2.269  47.466   2.160  0.00  0.00    +0.000 OA
ENDROOT
BRANCH   1  17
ATOM     12  C1  UNL     1      -0.897  48.489   3.811  0.00  0.00    +0.000 A 
ATOM     13  C2  UNL     1      -1.598  48.238   4.995  0.00  0.00    +0.000 A 
ATOM     14  C3  UNL     1      -1.007  47.493   6.021  0.00  0.00    +0.000 A 
ATOM     15  C4  UNL     1       0.288  47.001   5.858  0.00  0.00    +0.000 A 
ATOM     16  C5  UNL     1       0.993  47.248   4.678  0.00  0.00    +0.000 A 
ATOM     17  C6  UNL     1       0.415  47.996   3.631  0.00  0.00    +0.000 A 
BRANCH  14  18
ATOM     18  O5  UNL     1      -1.697  47.239   7.204  0.00  0.00    +0.000 OA
ATOM     19  H10 UNL     1      -2.542  47.745   7.444  0.00  0.00    +0.000 HD
ENDBRANCH  14  18
ENDBRANCH   1  17
BRANCH   8  20
ATOM     20  O3  UNL     1       6.064  45.904  -0.223  0.00  0.00    +0.000 OA
ATOM     21  H8  UNL     1       6.314  45.283   0.537  0.00  0.00    +0.000 HD
ENDBRANCH   8  20
BRANCH   6  22
ATOM     22  O4  UNL     1       3.551  49.540  -2.082  0.00  0.00    +0.000 OA
ATOM     23  H9  UNL     1       3.535  49.320  -3.064  0.00  0.00    +0.000 HD
ENDBRANCH   6  22
TORSDOF 4
ENDMDL
MODEL 9
REMARK VINA RESULT:      -5.9      2.167      3.578
REMARK  Name = .\Apigenin.pdb
REMARK  4 active torsions:
REMARK  status: ('A' for Active; 'I' for Inactive)
REMARK    1  A    between atoms: C3_3  and  O5_20
REMARK    2  A    between atoms: C6_6  and  C7_7
REMARK    3  A    between atoms: C11_12  and  O4_19
REMARK    4  A    between atoms: C13_14  and  O3_18
REMARK                            x       y       z     vdW  Elec       q    Type
REMARK                         _______ _______ _______ _____ _____    ______ ____
ROOT
ATOM      1  C7  UNL     1       1.905  46.662   4.581  0.00  0.00    +0.000 A 
ATOM      2  C8  UNL     1       0.757  46.238   5.269  0.00  0.00    +0.000 A 
ATOM      3  C9  UNL     1       0.790  46.096   6.657  0.00  0.00    +0.000 A 
ATOM      4  O1  UNL     1      -0.260  45.713   7.233  0.00  0.00    +0.000 OA
ATOM      5  C10 UNL     1       1.980  46.379   7.369  0.00  0.00    +0.000 A 
ATOM      6  C11 UNL     1       2.138  46.272   8.788  0.00  0.00    +0.000 A 
ATOM      7  C12 UNL     1       3.373  46.584   9.370  0.00  0.00    +0.000 A 
ATOM      8  C13 UNL     1       4.456  46.999   8.591  0.00  0.00    +0.000 A 
ATOM      9  C14 UNL     1       4.313  47.106   7.211  0.00  0.00    +0.000 A 
ATOM     10  C15 UNL     1       3.095  46.803   6.599  0.00  0.00    +0.000 A 
ATOM     11  O2  UNL     1       3.008  46.921   5.278  0.00  0.00    +0.000 OA
ENDROOT
BRANCH   1  17
ATOM     12  C1  UNL     1       3.161  46.963   2.376  0.00  0.00    +0.000 A 
ATOM     13  C2  UNL     1       3.150  47.127   0.987  0.00  0.00    +0.000 A 
ATOM     14  C3  UNL     1       1.939  47.171   0.289  0.00  0.00    +0.000 A 
ATOM     15  C4  UNL     1       0.737  47.050   0.987  0.00  0.00    +0.000 A 
ATOM     16  C5  UNL     1       0.740  46.886   2.375  0.00  0.00    +0.000 A 
ATOM     17  C6  UNL     1       1.951  46.839   3.096  0.00  0.00    +0.000 A 
BRANCH  14  18
ATOM     18  O5  UNL     1       1.919  47.335  -1.094  0.00  0.00    +0.000 OA
ATOM     19  H10 UNL     1       1.631  48.208  -1.519  0.00  0.00    +0.000 HD
ENDBRANCH  14  18
ENDBRANCH   1  17
BRANCH   8  20
ATOM     20  O3  UNL     1       5.679  47.306   9.182  0.00  0.00    +0.000 OA
ATOM     21  H8  UNL     1       5.848  47.146  10.168  0.00  0.00    +0.000 HD
ENDBRANCH   8  20
BRANCH   6  22
ATOM     22  O4  UNL     1       1.130  45.869   9.672  0.00  0.00    +0.000 OA
ATOM     23  H9  UNL     1       0.766  46.400  10.445  0.00  0.00    +0.000 HD
ENDBRANCH   6  22
TORSDOF 4
ENDMDL
