MODEL 1
REMARK VINA RESULT:      -8.2      0.000      0.000
REMARK  Name = .\Apigenin.pdb
REMARK  4 active torsions:
REMARK  status: ('A' for Active; 'I' for Inactive)
REMARK    1  A    between atoms: C3_3  and  O5_20
REMARK    2  A    between atoms: C6_6  and  C7_7
REMARK    3  A    between atoms: C11_12  and  O4_19
REMARK    4  A    between atoms: C13_14  and  O3_18
REMARK                            x       y       z     vdW  Elec       q    Type
REMARK                         _______ _______ _______ _____ _____    ______ ____
ROOT
ATOM      1  C7  UNL     1       9.771  77.140  63.811  0.00  0.00    +0.000 A 
ATOM      2  C8  UNL     1       9.467  75.770  63.841  0.00  0.00    +0.000 A 
ATOM      3  C9  UNL     1       8.546  75.281  64.769  0.00  0.00    +0.000 A 
ATOM      4  O1  UNL     1       8.303  74.047  64.762  0.00  0.00    +0.000 OA
ATOM      5  C10 UNL     1       7.922  76.166  65.680  0.00  0.00    +0.000 A 
ATOM      6  C11 UNL     1       6.965  75.787  66.675  0.00  0.00    +0.000 A 
ATOM      7  C12 UNL     1       6.421  76.765  67.516  0.00  0.00    +0.000 A 
ATOM      8  C13 UNL     1       6.793  78.107  67.402  0.00  0.00    +0.000 A 
ATOM      9  C14 UNL     1       7.722  78.486  66.438  0.00  0.00    +0.000 A 
ATOM     10  C15 UNL     1       8.285  77.536  65.583  0.00  0.00    +0.000 A 
ATOM     11  O2  UNL     1       9.168  77.947  64.679  0.00  0.00    +0.000 OA
ENDROOT
BRANCH   1  17
ATOM     12  C1  UNL     1      12.073  77.282  62.711  0.00  0.00    +0.000 A 
ATOM     13  C2  UNL     1      12.945  77.879  61.795  0.00  0.00    +0.000 A 
ATOM     14  C3  UNL     1      12.512  78.944  60.999  0.00  0.00    +0.000 A 
ATOM     15  C4  UNL     1      11.203  79.410  61.122  0.00  0.00    +0.000 A 
ATOM     16  C5  UNL     1      10.327  78.818  62.036  0.00  0.00    +0.000 A 
ATOM     17  C6  UNL     1      10.744  77.742  62.848  0.00  0.00    +0.000 A 
BRANCH  14  18
ATOM     18  O5  UNL     1      13.374  79.545  60.084  0.00  0.00    +0.000 OA
ATOM     19  H10 UNL     1      14.052  80.240  60.374  0.00  0.00    +0.000 HD
ENDBRANCH  14  18
ENDBRANCH   1  17
BRANCH   8  20
ATOM     20  O3  UNL     1       6.244  79.070  68.245  0.00  0.00    +0.000 OA
ATOM     21  H8  UNL     1       6.806  79.815  68.638  0.00  0.00    +0.000 HD
ENDBRANCH   8  20
BRANCH   6  22
ATOM     22  O4  UNL     1       6.513  74.479  66.886  0.00  0.00    +0.000 OA
ATOM     23  H9  UNL     1       5.788  74.007  66.372  0.00  0.00    +0.000 HD
ENDBRANCH   6  22
TORSDOF 4
ENDMDL
MODEL 2
REMARK VINA RESULT:      -7.8      2.445      6.519
REMARK  Name = .\Apigenin.pdb
REMARK  4 active torsions:
REMARK  status: ('A' for Active; 'I' for Inactive)
REMARK    1  A    between atoms: C3_3  and  O5_20
REMARK    2  A    between atoms: C6_6  and  C7_7
REMARK    3  A    between atoms: C11_12  and  O4_19
REMARK    4  A    between atoms: C13_14  and  O3_18
REMARK                            x       y       z     vdW  Elec       q    Type
REMARK                         _______ _______ _______ _____ _____    ______ ____
ROOT
ATOM      1  C7  UNL     1       7.292  78.736  67.269  0.00  0.00    +0.000 A 
ATOM      2  C8  UNL     1       6.715  77.506  67.624  0.00  0.00    +0.000 A 
ATOM      3  C9  UNL     1       7.044  76.352  66.911  0.00  0.00    +0.000 A 
ATOM      4  O1  UNL     1       6.505  75.272  67.261  0.00  0.00    +0.000 OA
ATOM      5  C10 UNL     1       7.956  76.423  65.831  0.00  0.00    +0.000 A 
ATOM      6  C11 UNL     1       8.370  75.314  65.026  0.00  0.00    +0.000 A 
ATOM      7  C12 UNL     1       9.282  75.521  63.984  0.00  0.00    +0.000 A 
ATOM      8  C13 UNL     1       9.798  76.791  63.715  0.00  0.00    +0.000 A 
ATOM      9  C14 UNL     1       9.401  77.876  64.491  0.00  0.00    +0.000 A 
ATOM     10  C15 UNL     1       8.493  77.705  65.538  0.00  0.00    +0.000 A 
ATOM     11  O2  UNL     1       8.145  78.771  66.251  0.00  0.00    +0.000 OA
ENDROOT
BRANCH   1  17
ATOM     12  C1  UNL     1       5.680  80.426  68.307  0.00  0.00    +0.000 A 
ATOM     13  C2  UNL     1       5.452  81.633  68.976  0.00  0.00    +0.000 A 
ATOM     14  C3  UNL     1       6.526  82.455  69.334  0.00  0.00    +0.000 A 
ATOM     15  C4  UNL     1       7.828  82.065  69.021  0.00  0.00    +0.000 A 
ATOM     16  C5  UNL     1       8.062  80.860  68.353  0.00  0.00    +0.000 A 
ATOM     17  C6  UNL     1       6.993  80.017  67.983  0.00  0.00    +0.000 A 
BRANCH  14  18
ATOM     18  O5  UNL     1       6.309  83.659  70.000  0.00  0.00    +0.000 OA
ATOM     19  H10 UNL     1       5.654  83.728  70.770  0.00  0.00    +0.000 HD
ENDBRANCH  14  18
ENDBRANCH   1  17
BRANCH   8  20
ATOM     20  O3  UNL     1      10.704  76.984  62.675  0.00  0.00    +0.000 OA
ATOM     21  H8  UNL     1      10.398  77.240  61.744  0.00  0.00    +0.000 HD
ENDBRANCH   8  20
BRANCH   6  22
ATOM     22  O4  UNL     1       7.926  73.998  65.198  0.00  0.00    +0.000 OA
ATOM     23  H9  UNL     1       7.204  73.688  65.826  0.00  0.00    +0.000 HD
ENDBRANCH   6  22
TORSDOF 4
ENDMDL
MODEL 3
REMARK VINA RESULT:      -7.6      1.298      2.870
REMARK  Name = .\Apigenin.pdb
REMARK  4 active torsions:
REMARK  status: ('A' for Active; 'I' for Inactive)
REMARK    1  A    between atoms: C3_3  and  O5_20
REMARK    2  A    between atoms: C6_6  and  C7_7
REMARK    3  A    between atoms: C11_12  and  O4_19
REMARK    4  A    between atoms: C13_14  and  O3_18
REMARK                            x       y       z     vdW  Elec       q    Type
REMARK                         _______ _______ _______ _____ _____    ______ ____
ROOT
ATOM      1  C7  UNL     1       9.745  77.138  63.857  0.00  0.00    +0.000 A 
ATOM      2  C8  UNL     1       9.174  78.018  64.789  0.00  0.00    +0.000 A 
ATOM      3  C9  UNL     1       8.248  77.543  65.720  0.00  0.00    +0.000 A 
ATOM      4  O1  UNL     1       7.760  78.364  66.536  0.00  0.00    +0.000 OA
ATOM      5  C10 UNL     1       7.886  76.174  65.720  0.00  0.00    +0.000 A 
ATOM      6  C11 UNL     1       6.952  75.568  66.621  0.00  0.00    +0.000 A 
ATOM      7  C12 UNL     1       6.682  74.198  66.514  0.00  0.00    +0.000 A 
ATOM      8  C13 UNL     1       7.308  73.410  65.546  0.00  0.00    +0.000 A 
ATOM      9  C14 UNL     1       8.217  73.989  64.667  0.00  0.00    +0.000 A 
ATOM     10  C15 UNL     1       8.509  75.352  64.744  0.00  0.00    +0.000 A 
ATOM     11  O2  UNL     1       9.385  75.859  63.883  0.00  0.00    +0.000 OA
ENDROOT
BRANCH   1  17
ATOM     12  C1  UNL     1      11.953  76.876  62.597  0.00  0.00    +0.000 A 
ATOM     13  C2  UNL     1      12.854  77.320  61.624  0.00  0.00    +0.000 A 
ATOM     14  C3  UNL     1      12.571  78.460  60.866  0.00  0.00    +0.000 A 
ATOM     15  C4  UNL     1      11.381  79.156  61.084  0.00  0.00    +0.000 A 
ATOM     16  C5  UNL     1      10.476  78.718  62.054  0.00  0.00    +0.000 A 
ATOM     17  C6  UNL     1      10.743  77.569  62.829  0.00  0.00    +0.000 A 
BRANCH  14  18
ATOM     18  O5  UNL     1      13.463  78.910  59.895  0.00  0.00    +0.000 OA
ATOM     19  H10 UNL     1      13.214  78.926  58.913  0.00  0.00    +0.000 HD
ENDBRANCH  14  18
ENDBRANCH   1  17
BRANCH   8  20
ATOM     20  O3  UNL     1       7.030  72.048  65.452  0.00  0.00    +0.000 OA
ATOM     21  H8  UNL     1       6.450  71.575  66.135  0.00  0.00    +0.000 HD
ENDBRANCH   8  20
BRANCH   6  22
ATOM     22  O4  UNL     1       6.263  76.251  67.629  0.00  0.00    +0.000 OA
ATOM     23  H9  UNL     1       6.014  77.226  67.629  0.00  0.00    +0.000 HD
ENDBRANCH   6  22
TORSDOF 4
ENDMDL
MODEL 4
REMARK VINA RESULT:      -7.4      3.325      7.021
REMARK  Name = .\Apigenin.pdb
REMARK  4 active torsions:
REMARK  status: ('A' for Active; 'I' for Inactive)
REMARK    1  A    between atoms: C3_3  and  O5_20
REMARK    2  A    between atoms: C6_6  and  C7_7
REMARK    3  A    between atoms: C11_12  and  O4_19
REMARK    4  A    between atoms: C13_14  and  O3_18
REMARK                            x       y       z     vdW  Elec       q    Type
REMARK                         _______ _______ _______ _____ _____    ______ ____
ROOT
ATOM      1  C7  UNL     1       7.985  73.418  65.572  0.00  0.00    +0.000 A 
ATOM      2  C8  UNL     1       7.353  74.183  66.565  0.00  0.00    +0.000 A 
ATOM      3  C9  UNL     1       7.493  75.572  66.569  0.00  0.00    +0.000 A 
ATOM      4  O1  UNL     1       6.912  76.219  67.476  0.00  0.00    +0.000 OA
ATOM      5  C10 UNL     1       8.274  76.207  65.572  0.00  0.00    +0.000 A 
ATOM      6  C11 UNL     1       8.493  77.618  65.471  0.00  0.00    +0.000 A 
ATOM      7  C12 UNL     1       9.289  78.118  64.433  0.00  0.00    +0.000 A 
ATOM      8  C13 UNL     1       9.873  77.266  63.493  0.00  0.00    +0.000 A 
ATOM      9  C14 UNL     1       9.666  75.893  63.583  0.00  0.00    +0.000 A 
ATOM     10  C15 UNL     1       8.879  75.360  64.606  0.00  0.00    +0.000 A 
ATOM     11  O2  UNL     1       8.711  74.043  64.650  0.00  0.00    +0.000 OA
ENDROOT
BRANCH   1  17
ATOM     12  C1  UNL     1       8.061  71.204  64.298  0.00  0.00    +0.000 A 
ATOM     13  C2  UNL     1       7.954  69.810  64.281  0.00  0.00    +0.000 A 
ATOM     14  C3  UNL     1       7.669  69.109  65.457  0.00  0.00    +0.000 A 
ATOM     15  C4  UNL     1       7.489  69.809  66.650  0.00  0.00    +0.000 A 
ATOM     16  C5  UNL     1       7.594  71.202  66.674  0.00  0.00    +0.000 A 
ATOM     17  C6  UNL     1       7.882  71.927  65.498  0.00  0.00    +0.000 A 
BRANCH  14  18
ATOM     18  O5  UNL     1       7.560  67.721  65.450  0.00  0.00    +0.000 OA
ATOM     19  H10 UNL     1       7.860  67.170  64.654  0.00  0.00    +0.000 HD
ENDBRANCH  14  18
ENDBRANCH   1  17
BRANCH   8  20
ATOM     20  O3  UNL     1      10.663  77.777  62.465  0.00  0.00    +0.000 OA
ATOM     21  H8  UNL     1      11.441  77.253  62.083  0.00  0.00    +0.000 HD
ENDBRANCH   8  20
BRANCH   6  22
ATOM     22  O4  UNL     1       7.963  78.570  66.348  0.00  0.00    +0.000 OA
ATOM     23  H9  UNL     1       7.859  79.554  66.169  0.00  0.00    +0.000 HD
ENDBRANCH   6  22
TORSDOF 4
ENDMDL
MODEL 5
REMARK VINA RESULT:      -7.4      3.518      6.367
REMARK  Name = .\Apigenin.pdb
REMARK  4 active torsions:
REMARK  status: ('A' for Active; 'I' for Inactive)
REMARK    1  A    between atoms: C3_3  and  O5_20
REMARK    2  A    between atoms: C6_6  and  C7_7
REMARK    3  A    between atoms: C11_12  and  O4_19
REMARK    4  A    between atoms: C13_14  and  O3_18
REMARK                            x       y       z     vdW  Elec       q    Type
REMARK                         _______ _______ _______ _____ _____    ______ ____
ROOT
ATOM      1  C7  UNL     1       7.834  75.291  65.429  0.00  0.00    +0.000 A 
ATOM      2  C8  UNL     1       8.386  75.292  64.139  0.00  0.00    +0.000 A 
ATOM      3  C9  UNL     1       8.603  74.085  63.473  0.00  0.00    +0.000 A 
ATOM      4  O1  UNL     1       9.100  74.131  62.319  0.00  0.00    +0.000 OA
ATOM      5  C10 UNL     1       8.268  72.861  64.100  0.00  0.00    +0.000 A 
ATOM      6  C11 UNL     1       8.442  71.562  63.522  0.00  0.00    +0.000 A 
ATOM      7  C12 UNL     1       8.067  70.428  64.252  0.00  0.00    +0.000 A 
ATOM      8  C13 UNL     1       7.524  70.538  65.534  0.00  0.00    +0.000 A 
ATOM      9  C14 UNL     1       7.350  71.795  66.105  0.00  0.00    +0.000 A 
ATOM     10  C15 UNL     1       7.714  72.948  65.405  0.00  0.00    +0.000 A 
ATOM     11  O2  UNL     1       7.528  74.125  65.992  0.00  0.00    +0.000 OA
ENDROOT
BRANCH   1  17
ATOM     12  C1  UNL     1       8.172  77.780  65.896  0.00  0.00    +0.000 A 
ATOM     13  C2  UNL     1       7.893  78.921  66.655  0.00  0.00    +0.000 A 
ATOM     14  C3  UNL     1       7.010  78.850  67.738  0.00  0.00    +0.000 A 
ATOM     15  C4  UNL     1       6.407  77.633  68.058  0.00  0.00    +0.000 A 
ATOM     16  C5  UNL     1       6.682  76.490  67.303  0.00  0.00    +0.000 A 
ATOM     17  C6  UNL     1       7.570  76.541  66.208  0.00  0.00    +0.000 A 
BRANCH  14  18
ATOM     18  O5  UNL     1       6.726  79.981  68.500  0.00  0.00    +0.000 OA
ATOM     19  H10 UNL     1       7.139  80.121  69.415  0.00  0.00    +0.000 HD
ENDBRANCH  14  18
ENDBRANCH   1  17
BRANCH   8  20
ATOM     20  O3  UNL     1       7.155  69.401  66.249  0.00  0.00    +0.000 OA
ATOM     21  H8  UNL     1       6.423  69.428  66.949  0.00  0.00    +0.000 HD
ENDBRANCH   8  20
BRANCH   6  22
ATOM     22  O4  UNL     1       8.973  71.323  62.250  0.00  0.00    +0.000 OA
ATOM     23  H9  UNL     1       8.713  71.788  61.397  0.00  0.00    +0.000 HD
ENDBRANCH   6  22
TORSDOF 4
ENDMDL
MODEL 6
REMARK VINA RESULT:      -6.9      4.052      7.370
REMARK  Name = .\Apigenin.pdb
REMARK  4 active torsions:
REMARK  status: ('A' for Active; 'I' for Inactive)
REMARK    1  A    between atoms: C3_3  and  O5_20
REMARK    2  A    between atoms: C6_6  and  C7_7
REMARK    3  A    between atoms: C11_12  and  O4_19
REMARK    4  A    between atoms: C13_14  and  O3_18
REMARK                            x       y       z     vdW  Elec       q    Type
REMARK                         _______ _______ _______ _____ _____    ______ ____
ROOT
ATOM      1  C7  UNL     1       6.991  79.978  68.022  0.00  0.00    +0.000 A 
ATOM      2  C8  UNL     1       5.754  80.298  68.604  0.00  0.00    +0.000 A 
ATOM      3  C9  UNL     1       5.580  81.533  69.232  0.00  0.00    +0.000 A 
ATOM      4  O1  UNL     1       4.457  81.780  69.741  0.00  0.00    +0.000 OA
ATOM      5  C10 UNL     1       6.650  82.458  69.283  0.00  0.00    +0.000 A 
ATOM      6  C11 UNL     1       6.595  83.750  69.897  0.00  0.00    +0.000 A 
ATOM      7  C12 UNL     1       7.729  84.571  69.877  0.00  0.00    +0.000 A 
ATOM      8  C13 UNL     1       8.915  84.154  69.268  0.00  0.00    +0.000 A 
ATOM      9  C14 UNL     1       8.979  82.899  68.669  0.00  0.00    +0.000 A 
ATOM     10  C15 UNL     1       7.867  82.055  68.671  0.00  0.00    +0.000 A 
ATOM     11  O2  UNL     1       7.977  80.867  68.086  0.00  0.00    +0.000 OA
ENDROOT
BRANCH   1  17
ATOM     12  C1  UNL     1       8.170  78.552  66.259  0.00  0.00    +0.000 A 
ATOM     13  C2  UNL     1       8.383  77.314  65.644  0.00  0.00    +0.000 A 
ATOM     14  C3  UNL     1       7.694  76.179  66.083  0.00  0.00    +0.000 A 
ATOM     15  C4  UNL     1       6.789  76.288  67.139  0.00  0.00    +0.000 A 
ATOM     16  C5  UNL     1       6.571  77.522  67.757  0.00  0.00    +0.000 A 
ATOM     17  C6  UNL     1       7.257  78.678  67.330  0.00  0.00    +0.000 A 
BRANCH  14  18
ATOM     18  O5  UNL     1       7.900  74.942  65.477  0.00  0.00    +0.000 OA
ATOM     19  H10 UNL     1       7.325  74.630  64.703  0.00  0.00    +0.000 HD
ENDBRANCH  14  18
ENDBRANCH   1  17
BRANCH   8  20
ATOM     20  O3  UNL     1      10.036  84.980  69.255  0.00  0.00    +0.000 OA
ATOM     21  H8  UNL     1      10.479  85.261  68.388  0.00  0.00    +0.000 HD
ENDBRANCH   8  20
BRANCH   6  22
ATOM     22  O4  UNL     1       5.469  84.279  70.536  0.00  0.00    +0.000 OA
ATOM     23  H9  UNL     1       5.037  83.927  71.374  0.00  0.00    +0.000 HD
ENDBRANCH   6  22
TORSDOF 4
ENDMDL
MODEL 7
REMARK VINA RESULT:      -6.8      1.913      2.202
REMARK  Name = .\Apigenin.pdb
REMARK  4 active torsions:
REMARK  status: ('A' for Active; 'I' for Inactive)
REMARK    1  A    between atoms: C3_3  and  O5_20
REMARK    2  A    between atoms: C6_6  and  C7_7
REMARK    3  A    between atoms: C11_12  and  O4_19
REMARK    4  A    between atoms: C13_14  and  O3_18
REMARK                            x       y       z     vdW  Elec       q    Type
REMARK                         _______ _______ _______ _____ _____    ______ ____
ROOT
ATOM      1  C7  UNL     1       9.827  75.506  62.665  0.00  0.00    +0.000 A 
ATOM      2  C8  UNL     1       9.190  74.258  62.756  0.00  0.00    +0.000 A 
ATOM      3  C9  UNL     1       8.356  73.980  63.840  0.00  0.00    +0.000 A 
ATOM      4  O1  UNL     1       7.806  72.851  63.884  0.00  0.00    +0.000 OA
ATOM      5  C10 UNL     1       8.155  74.956  64.847  0.00  0.00    +0.000 A 
ATOM      6  C11 UNL     1       7.327  74.791  66.003  0.00  0.00    +0.000 A 
ATOM      7  C12 UNL     1       7.213  75.839  66.924  0.00  0.00    +0.000 A 
ATOM      8  C13 UNL     1       7.892  77.044  66.737  0.00  0.00    +0.000 A 
ATOM      9  C14 UNL     1       8.700  77.215  65.617  0.00  0.00    +0.000 A 
ATOM     10  C15 UNL     1       8.836  76.191  64.678  0.00  0.00    +0.000 A 
ATOM     11  O2  UNL     1       9.618  76.402  63.624  0.00  0.00    +0.000 OA
ENDROOT
BRANCH   1  17
ATOM     12  C1  UNL     1      10.557  75.401  60.218  0.00  0.00    +0.000 A 
ATOM     13  C2  UNL     1      11.433  75.781  59.196  0.00  0.00    +0.000 A 
ATOM     14  C3  UNL     1      12.500  76.644  59.465  0.00  0.00    +0.000 A 
ATOM     15  C4  UNL     1      12.688  77.126  60.761  0.00  0.00    +0.000 A 
ATOM     16  C5  UNL     1      11.816  76.750  61.786  0.00  0.00    +0.000 A 
ATOM     17  C6  UNL     1      10.734  75.881  61.535  0.00  0.00    +0.000 A 
BRANCH  14  18
ATOM     18  O5  UNL     1      13.378  77.028  58.454  0.00  0.00    +0.000 OA
ATOM     19  H10 UNL     1      14.381  76.935  58.560  0.00  0.00    +0.000 HD
ENDBRANCH  14  18
ENDBRANCH   1  17
BRANCH   8  20
ATOM     20  O3  UNL     1       7.771  78.079  67.662  0.00  0.00    +0.000 OA
ATOM     21  H8  UNL     1       7.083  78.814  67.549  0.00  0.00    +0.000 HD
ENDBRANCH   8  20
BRANCH   6  22
ATOM     22  O4  UNL     1       6.598  73.633  66.300  0.00  0.00    +0.000 OA
ATOM     23  H9  UNL     1       5.808  73.567  66.918  0.00  0.00    +0.000 HD
ENDBRANCH   6  22
TORSDOF 4
ENDMDL
MODEL 8
REMARK VINA RESULT:      -6.6      3.977      7.372
REMARK  Name = .\Apigenin.pdb
REMARK  4 active torsions:
REMARK  status: ('A' for Active; 'I' for Inactive)
REMARK    1  A    between atoms: C3_3  and  O5_20
REMARK    2  A    between atoms: C6_6  and  C7_7
REMARK    3  A    between atoms: C11_12  and  O4_19
REMARK    4  A    between atoms: C13_14  and  O3_18
REMARK                            x       y       z     vdW  Elec       q    Type
REMARK                         _______ _______ _______ _____ _____    ______ ____
ROOT
ATOM      1  C7  UNL     1       7.089  79.985  67.986  0.00  0.00    +0.000 A 
ATOM      2  C8  UNL     1       8.198  80.803  68.254  0.00  0.00    +0.000 A 
ATOM      3  C9  UNL     1       8.013  82.055  68.843  0.00  0.00    +0.000 A 
ATOM      4  O1  UNL     1       9.032  82.756  69.065  0.00  0.00    +0.000 OA
ATOM      5  C10 UNL     1       6.708  82.498  69.167  0.00  0.00    +0.000 A 
ATOM      6  C11 UNL     1       6.390  83.757  69.771  0.00  0.00    +0.000 A 
ATOM      7  C12 UNL     1       5.053  84.073  70.042  0.00  0.00    +0.000 A 
ATOM      8  C13 UNL     1       4.022  83.183  69.735  0.00  0.00    +0.000 A 
ATOM      9  C14 UNL     1       4.320  81.957  69.147  0.00  0.00    +0.000 A 
ATOM     10  C15 UNL     1       5.642  81.610  68.864  0.00  0.00    +0.000 A 
ATOM     11  O2  UNL     1       5.877  80.428  68.303  0.00  0.00    +0.000 OA
ENDROOT
BRANCH   1  17
ATOM     12  C1  UNL     1       8.123  78.339  66.327  0.00  0.00    +0.000 A 
ATOM     13  C2  UNL     1       8.192  77.057  65.773  0.00  0.00    +0.000 A 
ATOM     14  C3  UNL     1       7.347  76.042  66.235  0.00  0.00    +0.000 A 
ATOM     15  C4  UNL     1       6.434  76.315  67.253  0.00  0.00    +0.000 A 
ATOM     16  C5  UNL     1       6.360  77.594  67.811  0.00  0.00    +0.000 A 
ATOM     17  C6  UNL     1       7.204  78.631  67.359  0.00  0.00    +0.000 A 
BRANCH  14  18
ATOM     18  O5  UNL     1       7.408  74.762  65.688  0.00  0.00    +0.000 OA
ATOM     19  H10 UNL     1       7.254  74.600  64.699  0.00  0.00    +0.000 HD
ENDBRANCH  14  18
ENDBRANCH   1  17
BRANCH   8  20
ATOM     20  O3  UNL     1       2.696  83.510  70.009  0.00  0.00    +0.000 OA
ATOM     21  H8  UNL     1       2.372  84.470  69.995  0.00  0.00    +0.000 HD
ENDBRANCH   8  20
BRANCH   6  22
ATOM     22  O4  UNL     1       7.332  84.729  70.125  0.00  0.00    +0.000 OA
ATOM     23  H9  UNL     1       7.811  84.804  71.006  0.00  0.00    +0.000 HD
ENDBRANCH   6  22
TORSDOF 4
ENDMDL
MODEL 9
REMARK VINA RESULT:      -6.5      2.053      6.954
REMARK  Name = .\Apigenin.pdb
REMARK  4 active torsions:
REMARK  status: ('A' for Active; 'I' for Inactive)
REMARK    1  A    between atoms: C3_3  and  O5_20
REMARK    2  A    between atoms: C6_6  and  C7_7
REMARK    3  A    between atoms: C11_12  and  O4_19
REMARK    4  A    between atoms: C13_14  and  O3_18
REMARK                            x       y       z     vdW  Elec       q    Type
REMARK                         _______ _______ _______ _____ _____    ______ ____
ROOT
ATOM      1  C7  UNL     1       9.851  76.120  63.183  0.00  0.00    +0.000 A 
ATOM      2  C8  UNL     1       9.902  75.088  62.233  0.00  0.00    +0.000 A 
ATOM      3  C9  UNL     1      10.775  75.182  61.148  0.00  0.00    +0.000 A 
ATOM      4  O1  UNL     1      10.789  74.236  60.321  0.00  0.00    +0.000 OA
ATOM      5  C10 UNL     1      11.607  76.319  61.006  0.00  0.00    +0.000 A 
ATOM      6  C11 UNL     1      12.540  76.531  59.941  0.00  0.00    +0.000 A 
ATOM      7  C12 UNL     1      13.306  77.703  59.920  0.00  0.00    +0.000 A 
ATOM      8  C13 UNL     1      13.177  78.671  60.918  0.00  0.00    +0.000 A 
ATOM      9  C14 UNL     1      12.273  78.474  61.958  0.00  0.00    +0.000 A 
ATOM     10  C15 UNL     1      11.494  77.317  62.010  0.00  0.00    +0.000 A 
ATOM     11  O2  UNL     1      10.645  77.175  63.023  0.00  0.00    +0.000 OA
ENDROOT
BRANCH   1  17
ATOM     12  C1  UNL     1       8.363  74.905  64.868  0.00  0.00    +0.000 A 
ATOM     13  C2  UNL     1       7.521  74.933  65.984  0.00  0.00    +0.000 A 
ATOM     14  C3  UNL     1       7.242  76.143  66.628  0.00  0.00    +0.000 A 
ATOM     15  C4  UNL     1       7.808  77.325  66.150  0.00  0.00    +0.000 A 
ATOM     16  C5  UNL     1       8.650  77.304  65.036  0.00  0.00    +0.000 A 
ATOM     17  C6  UNL     1       8.945  76.094  64.372  0.00  0.00    +0.000 A 
BRANCH  14  18
ATOM     18  O5  UNL     1       6.404  76.180  67.740  0.00  0.00    +0.000 OA
ATOM     19  H10 UNL     1       6.081  77.058  68.131  0.00  0.00    +0.000 HD
ENDBRANCH  14  18
ENDBRANCH   1  17
BRANCH   8  20
ATOM     20  O3  UNL     1      13.945  79.833  60.885  0.00  0.00    +0.000 OA
ATOM     21  H8  UNL     1      14.570  80.079  61.643  0.00  0.00    +0.000 HD
ENDBRANCH   8  20
BRANCH   6  22
ATOM     22  O4  UNL     1      12.759  75.638  58.887  0.00  0.00    +0.000 OA
ATOM     23  H9  UNL     1      12.137  74.908  58.584  0.00  0.00    +0.000 HD
ENDBRANCH   6  22
TORSDOF 4
ENDMDL
