MODEL 1
REMARK VINA RESULT:      -5.3      0.000      0.000
REMARK  Name = .\Apigenin.pdb
REMARK  4 active torsions:
REMARK  status: ('A' for Active; 'I' for Inactive)
REMARK    1  A    between atoms: C3_3  and  O5_20
REMARK    2  A    between atoms: C6_6  and  C7_7
REMARK    3  A    between atoms: C11_12  and  O4_19
REMARK    4  A    between atoms: C13_14  and  O3_18
REMARK                            x       y       z     vdW  Elec       q    Type
REMARK                         _______ _______ _______ _____ _____    ______ ____
ROOT
ATOM      1  C7  UNL     1      -2.103  85.891  62.168  0.00  0.00    +0.000 A 
ATOM      2  C8  UNL     1      -2.833  85.118  61.252  0.00  0.00    +0.000 A 
ATOM      3  C9  UNL     1      -4.177  85.410  61.010  0.00  0.00    +0.000 A 
ATOM      4  O1  UNL     1      -4.794  84.692  60.183  0.00  0.00    +0.000 OA
ATOM      5  C10 UNL     1      -4.801  86.483  61.691  0.00  0.00    +0.000 A 
ATOM      6  C11 UNL     1      -6.168  86.878  61.529  0.00  0.00    +0.000 A 
ATOM      7  C12 UNL     1      -6.663  87.962  62.265  0.00  0.00    +0.000 A 
ATOM      8  C13 UNL     1      -5.848  88.667  63.154  0.00  0.00    +0.000 A 
ATOM      9  C14 UNL     1      -4.518  88.290  63.318  0.00  0.00    +0.000 A 
ATOM     10  C15 UNL     1      -3.992  87.214  62.600  0.00  0.00    +0.000 A 
ATOM     11  O2  UNL     1      -2.717  86.893  62.791  0.00  0.00    +0.000 OA
ENDROOT
BRANCH   1  17
ATOM     12  C1  UNL     1      -0.074  85.993  63.718  0.00  0.00    +0.000 A 
ATOM     13  C2  UNL     1       1.280  85.741  63.962  0.00  0.00    +0.000 A 
ATOM     14  C3  UNL     1       2.075  85.138  62.981  0.00  0.00    +0.000 A 
ATOM     15  C4  UNL     1       1.509  84.789  61.754  0.00  0.00    +0.000 A 
ATOM     16  C5  UNL     1       0.157  85.038  61.504  0.00  0.00    +0.000 A 
ATOM     17  C6  UNL     1      -0.661  85.644  62.481  0.00  0.00    +0.000 A 
BRANCH  14  18
ATOM     18  O5  UNL     1       3.424  84.884  63.215  0.00  0.00    +0.000 OA
ATOM     19  H10 UNL     1       4.135  85.129  62.534  0.00  0.00    +0.000 HD
ENDBRANCH  14  18
ENDBRANCH   1  17
BRANCH   8  20
ATOM     20  O3  UNL     1      -6.352  89.743  63.879  0.00  0.00    +0.000 OA
ATOM     21  H8  UNL     1      -6.780  90.539  63.421  0.00  0.00    +0.000 HD
ENDBRANCH   8  20
BRANCH   6  22
ATOM     22  O4  UNL     1      -7.080  86.253  60.672  0.00  0.00    +0.000 OA
ATOM     23  H9  UNL     1      -6.878  85.857  59.770  0.00  0.00    +0.000 HD
ENDBRANCH   6  22
TORSDOF 4
ENDMDL
MODEL 2
REMARK VINA RESULT:      -5.2      2.218      7.325
REMARK  Name = .\Apigenin.pdb
REMARK  4 active torsions:
REMARK  status: ('A' for Active; 'I' for Inactive)
REMARK    1  A    between atoms: C3_3  and  O5_20
REMARK    2  A    between atoms: C6_6  and  C7_7
REMARK    3  A    between atoms: C11_12  and  O4_19
REMARK    4  A    between atoms: C13_14  and  O3_18
REMARK                            x       y       z     vdW  Elec       q    Type
REMARK                         _______ _______ _______ _____ _____    ______ ____
ROOT
ATOM      1  C7  UNL     1      -1.349  86.025  61.559  0.00  0.00    +0.000 A 
ATOM      2  C8  UNL     1      -0.634  85.662  62.712  0.00  0.00    +0.000 A 
ATOM      3  C9  UNL     1       0.762  85.671  62.697  0.00  0.00    +0.000 A 
ATOM      4  O1  UNL     1       1.363  85.338  63.749  0.00  0.00    +0.000 OA
ATOM      5  C10 UNL     1       1.454  86.046  61.520  0.00  0.00    +0.000 A 
ATOM      6  C11 UNL     1       2.878  86.095  61.381  0.00  0.00    +0.000 A 
ATOM      7  C12 UNL     1       3.438  86.485  60.158  0.00  0.00    +0.000 A 
ATOM      8  C13 UNL     1       2.632  86.828  59.070  0.00  0.00    +0.000 A 
ATOM      9  C14 UNL     1       1.247  86.784  59.195  0.00  0.00    +0.000 A 
ATOM     10  C15 UNL     1       0.656  86.399  60.400  0.00  0.00    +0.000 A 
ATOM     11  O2  UNL     1      -0.671  86.373  60.470  0.00  0.00    +0.000 OA
ENDROOT
BRANCH   1  17
ATOM     12  C1  UNL     1      -3.608  84.910  61.132  0.00  0.00    +0.000 A 
ATOM     13  C2  UNL     1      -5.004  84.977  61.086  0.00  0.00    +0.000 A 
ATOM     14  C3  UNL     1      -5.666  86.168  61.401  0.00  0.00    +0.000 A 
ATOM     15  C4  UNL     1      -4.924  87.294  61.760  0.00  0.00    +0.000 A 
ATOM     16  C5  UNL     1      -3.529  87.234  61.808  0.00  0.00    +0.000 A 
ATOM     17  C6  UNL     1      -2.844  86.042  61.495  0.00  0.00    +0.000 A 
BRANCH  14  18
ATOM     18  O5  UNL     1      -7.056  86.244  61.357  0.00  0.00    +0.000 OA
ATOM     19  H10 UNL     1      -7.577  85.957  60.536  0.00  0.00    +0.000 HD
ENDBRANCH  14  18
ENDBRANCH   1  17
BRANCH   8  20
ATOM     20  O3  UNL     1       3.202  87.214  57.858  0.00  0.00    +0.000 OA
ATOM     21  H8  UNL     1       4.056  86.792  57.515  0.00  0.00    +0.000 HD
ENDBRANCH   8  20
BRANCH   6  22
ATOM     22  O4  UNL     1       3.788  85.776  62.395  0.00  0.00    +0.000 OA
ATOM     23  H9  UNL     1       3.733  84.990  63.021  0.00  0.00    +0.000 HD
ENDBRANCH   6  22
TORSDOF 4
ENDMDL
MODEL 3
REMARK VINA RESULT:      -5.2      1.726      7.291
REMARK  Name = .\Apigenin.pdb
REMARK  4 active torsions:
REMARK  status: ('A' for Active; 'I' for Inactive)
REMARK    1  A    between atoms: C3_3  and  O5_20
REMARK    2  A    between atoms: C6_6  and  C7_7
REMARK    3  A    between atoms: C11_12  and  O4_19
REMARK    4  A    between atoms: C13_14  and  O3_18
REMARK                            x       y       z     vdW  Elec       q    Type
REMARK                         _______ _______ _______ _____ _____    ______ ____
ROOT
ATOM      1  C7  UNL     1      -1.888  85.979  63.066  0.00  0.00    +0.000 A 
ATOM      2  C8  UNL     1      -1.709  86.271  64.427  0.00  0.00    +0.000 A 
ATOM      3  C9  UNL     1      -0.428  86.245  64.982  0.00  0.00    +0.000 A 
ATOM      4  O1  UNL     1      -0.312  86.511  66.205  0.00  0.00    +0.000 OA
ATOM      5  C10 UNL     1       0.687  85.923  64.172  0.00  0.00    +0.000 A 
ATOM      6  C11 UNL     1       2.045  85.863  64.623  0.00  0.00    +0.000 A 
ATOM      7  C12 UNL     1       3.058  85.532  63.715  0.00  0.00    +0.000 A 
ATOM      8  C13 UNL     1       2.770  85.259  62.376  0.00  0.00    +0.000 A 
ATOM      9  C14 UNL     1       1.454  85.314  61.928  0.00  0.00    +0.000 A 
ATOM     10  C15 UNL     1       0.419  85.641  62.806  0.00  0.00    +0.000 A 
ATOM     11  O2  UNL     1      -0.821  85.681  62.331  0.00  0.00    +0.000 OA
ENDROOT
BRANCH   1  17
ATOM     12  C1  UNL     1      -3.757  84.860  61.729  0.00  0.00    +0.000 A 
ATOM     13  C2  UNL     1      -5.014  84.918  61.118  0.00  0.00    +0.000 A 
ATOM     14  C3  UNL     1      -5.765  86.097  61.159  0.00  0.00    +0.000 A 
ATOM     15  C4  UNL     1      -5.254  87.218  61.814  0.00  0.00    +0.000 A 
ATOM     16  C5  UNL     1      -4.000  87.167  62.426  0.00  0.00    +0.000 A 
ATOM     17  C6  UNL     1      -3.226  85.987  62.396  0.00  0.00    +0.000 A 
BRANCH  14  18
ATOM     18  O5  UNL     1      -7.017  86.164  60.553  0.00  0.00    +0.000 OA
ATOM     19  H10 UNL     1      -7.866  85.952  61.065  0.00  0.00    +0.000 HD
ENDBRANCH  14  18
ENDBRANCH   1  17
BRANCH   8  20
ATOM     20  O3  UNL     1       3.788  84.931  61.484  0.00  0.00    +0.000 OA
ATOM     21  H8  UNL     1       3.744  85.196  60.507  0.00  0.00    +0.000 HD
ENDBRANCH   8  20
BRANCH   6  22
ATOM     22  O4  UNL     1       2.458  86.115  65.936  0.00  0.00    +0.000 OA
ATOM     23  H9  UNL     1       2.228  85.570  66.750  0.00  0.00    +0.000 HD
ENDBRANCH   6  22
TORSDOF 4
ENDMDL
MODEL 4
REMARK VINA RESULT:      -5.0      1.704      7.008
REMARK  Name = .\Apigenin.pdb
REMARK  4 active torsions:
REMARK  status: ('A' for Active; 'I' for Inactive)
REMARK    1  A    between atoms: C3_3  and  O5_20
REMARK    2  A    between atoms: C6_6  and  C7_7
REMARK    3  A    between atoms: C11_12  and  O4_19
REMARK    4  A    between atoms: C13_14  and  O3_18
REMARK                            x       y       z     vdW  Elec       q    Type
REMARK                         _______ _______ _______ _____ _____    ______ ____
ROOT
ATOM      1  C7  UNL     1      -1.405  85.877  61.694  0.00  0.00    +0.000 A 
ATOM      2  C8  UNL     1      -0.557  85.803  60.578  0.00  0.00    +0.000 A 
ATOM      3  C9  UNL     1       0.825  85.721  60.758  0.00  0.00    +0.000 A 
ATOM      4  O1  UNL     1       1.549  85.657  59.733  0.00  0.00    +0.000 OA
ATOM      5  C10 UNL     1       1.369  85.713  62.066  0.00  0.00    +0.000 A 
ATOM      6  C11 UNL     1       2.764  85.632  62.378  0.00  0.00    +0.000 A 
ATOM      7  C12 UNL     1       3.170  85.634  63.718  0.00  0.00    +0.000 A 
ATOM      8  C13 UNL     1       2.240  85.711  64.757  0.00  0.00    +0.000 A 
ATOM      9  C14 UNL     1       0.882  85.789  64.464  0.00  0.00    +0.000 A 
ATOM     10  C15 UNL     1       0.442  85.791  63.139  0.00  0.00    +0.000 A 
ATOM     11  O2  UNL     1      -0.864  85.867  62.909  0.00  0.00    +0.000 OA
ENDROOT
BRANCH   1  17
ATOM     12  C1  UNL     1      -3.702  84.876  61.192  0.00  0.00    +0.000 A 
ATOM     13  C2  UNL     1      -5.091  85.011  61.106  0.00  0.00    +0.000 A 
ATOM     14  C3  UNL     1      -5.703  86.232  61.408  0.00  0.00    +0.000 A 
ATOM     15  C4  UNL     1      -4.919  87.318  61.797  0.00  0.00    +0.000 A 
ATOM     16  C5  UNL     1      -3.530  87.190  61.886  0.00  0.00    +0.000 A 
ATOM     17  C6  UNL     1      -2.894  85.967  61.586  0.00  0.00    +0.000 A 
BRANCH  14  18
ATOM     18  O5  UNL     1      -7.086  86.376  61.324  0.00  0.00    +0.000 OA
ATOM     19  H10 UNL     1      -7.673  85.638  60.952  0.00  0.00    +0.000 HD
ENDBRANCH  14  18
ENDBRANCH   1  17
BRANCH   8  20
ATOM     20  O3  UNL     1       2.658  85.711  66.086  0.00  0.00    +0.000 OA
ATOM     21  H8  UNL     1       2.498  86.506  66.693  0.00  0.00    +0.000 HD
ENDBRANCH   8  20
BRANCH   6  22
ATOM     22  O4  UNL     1       3.788  85.551  61.429  0.00  0.00    +0.000 OA
ATOM     23  H9  UNL     1       4.422  86.287  61.169  0.00  0.00    +0.000 HD
ENDBRANCH   6  22
TORSDOF 4
ENDMDL
MODEL 5
REMARK VINA RESULT:      -4.9      1.089      2.990
REMARK  Name = .\Apigenin.pdb
REMARK  4 active torsions:
REMARK  status: ('A' for Active; 'I' for Inactive)
REMARK    1  A    between atoms: C3_3  and  O5_20
REMARK    2  A    between atoms: C6_6  and  C7_7
REMARK    3  A    between atoms: C11_12  and  O4_19
REMARK    4  A    between atoms: C13_14  and  O3_18
REMARK                            x       y       z     vdW  Elec       q    Type
REMARK                         _______ _______ _______ _____ _____    ______ ____
ROOT
ATOM      1  C7  UNL     1      -1.672  86.976  62.995  0.00  0.00    +0.000 A 
ATOM      2  C8  UNL     1      -1.922  88.123  63.763  0.00  0.00    +0.000 A 
ATOM      3  C9  UNL     1      -3.195  88.696  63.765  0.00  0.00    +0.000 A 
ATOM      4  O1  UNL     1      -3.376  89.724  64.467  0.00  0.00    +0.000 OA
ATOM      5  C10 UNL     1      -4.231  88.121  62.990  0.00  0.00    +0.000 A 
ATOM      6  C11 UNL     1      -5.572  88.615  62.909  0.00  0.00    +0.000 A 
ATOM      7  C12 UNL     1      -6.504  87.949  62.103  0.00  0.00    +0.000 A 
ATOM      8  C13 UNL     1      -6.150  86.811  61.376  0.00  0.00    +0.000 A 
ATOM      9  C14 UNL     1      -4.848  86.323  61.448  0.00  0.00    +0.000 A 
ATOM     10  C15 UNL     1      -3.894  86.962  62.242  0.00  0.00    +0.000 A 
ATOM     11  O2  UNL     1      -2.665  86.458  62.278  0.00  0.00    +0.000 OA
ENDROOT
BRANCH   1  17
ATOM     12  C1  UNL     1       0.047  85.446  61.884  0.00  0.00    +0.000 A 
ATOM     13  C2  UNL     1       1.308  84.839  61.880  0.00  0.00    +0.000 A 
ATOM     14  C3  UNL     1       2.207  85.071  62.925  0.00  0.00    +0.000 A 
ATOM     15  C4  UNL     1       1.841  85.913  63.976  0.00  0.00    +0.000 A 
ATOM     16  C5  UNL     1       0.584  86.523  63.986  0.00  0.00    +0.000 A 
ATOM     17  C6  UNL     1      -0.338  86.302  62.941  0.00  0.00    +0.000 A 
BRANCH  14  18
ATOM     18  O5  UNL     1       3.464  84.471  62.930  0.00  0.00    +0.000 OA
ATOM     19  H10 UNL     1       3.589  83.507  63.216  0.00  0.00    +0.000 HD
ENDBRANCH  14  18
ENDBRANCH   1  17
BRANCH   8  20
ATOM     20  O3  UNL     1      -7.086  86.158  60.578  0.00  0.00    +0.000 OA
ATOM     21  H8  UNL     1      -7.147  85.147  60.549  0.00  0.00    +0.000 HD
ENDBRANCH   8  20
BRANCH   6  22
ATOM     22  O4  UNL     1      -6.046  89.743  63.588  0.00  0.00    +0.000 OA
ATOM     23  H9  UNL     1      -6.938  89.834  64.046  0.00  0.00    +0.000 HD
ENDBRANCH   6  22
TORSDOF 4
ENDMDL
MODEL 6
REMARK VINA RESULT:      -4.7      1.713      6.720
REMARK  Name = .\Apigenin.pdb
REMARK  4 active torsions:
REMARK  status: ('A' for Active; 'I' for Inactive)
REMARK    1  A    between atoms: C3_3  and  O5_20
REMARK    2  A    between atoms: C6_6  and  C7_7
REMARK    3  A    between atoms: C11_12  and  O4_19
REMARK    4  A    between atoms: C13_14  and  O3_18
REMARK                            x       y       z     vdW  Elec       q    Type
REMARK                         _______ _______ _______ _____ _____    ______ ____
ROOT
ATOM      1  C7  UNL     1      -2.783  86.839  62.084  0.00  0.00    +0.000 A 
ATOM      2  C8  UNL     1      -2.265  85.925  61.154  0.00  0.00    +0.000 A 
ATOM      3  C9  UNL     1      -0.995  85.380  61.346  0.00  0.00    +0.000 A 
ATOM      4  O1  UNL     1      -0.568  84.565  60.489  0.00  0.00    +0.000 OA
ATOM      5  C10 UNL     1      -0.229  85.753  62.478  0.00  0.00    +0.000 A 
ATOM      6  C11 UNL     1       1.082  85.266  62.784  0.00  0.00    +0.000 A 
ATOM      7  C12 UNL     1       1.731  85.716  63.940  0.00  0.00    +0.000 A 
ATOM      8  C13 UNL     1       1.124  86.631  64.802  0.00  0.00    +0.000 A 
ATOM      9  C14 UNL     1      -0.151  87.111  64.514  0.00  0.00    +0.000 A 
ATOM     10  C15 UNL     1      -0.827  86.683  63.369  0.00  0.00    +0.000 A 
ATOM     11  O2  UNL     1      -2.041  87.169  63.137  0.00  0.00    +0.000 OA
ENDROOT
BRANCH   1  17
ATOM     12  C1  UNL     1      -5.294  86.727  61.621  0.00  0.00    +0.000 A 
ATOM     13  C2  UNL     1      -6.536  87.359  61.508  0.00  0.00    +0.000 A 
ATOM     14  C3  UNL     1      -6.649  88.737  61.719  0.00  0.00    +0.000 A 
ATOM     15  C4  UNL     1      -5.514  89.480  62.044  0.00  0.00    +0.000 A 
ATOM     16  C5  UNL     1      -4.270  88.855  62.159  0.00  0.00    +0.000 A 
ATOM     17  C6  UNL     1      -4.135  87.466  61.950  0.00  0.00    +0.000 A 
BRANCH  14  18
ATOM     18  O5  UNL     1      -7.882  89.376  61.607  0.00  0.00    +0.000 OA
ATOM     19  H10 UNL     1      -8.359  89.454  60.716  0.00  0.00    +0.000 HD
ENDBRANCH  14  18
ENDBRANCH   1  17
BRANCH   8  20
ATOM     20  O3  UNL     1       1.781  87.071  65.949  0.00  0.00    +0.000 OA
ATOM     21  H8  UNL     1       2.146  86.420  66.634  0.00  0.00    +0.000 HD
ENDBRANCH   8  20
BRANCH   6  22
ATOM     22  O4  UNL     1       1.792  84.350  62.000  0.00  0.00    +0.000 OA
ATOM     23  H9  UNL     1       2.658  84.522  61.517  0.00  0.00    +0.000 HD
ENDBRANCH   6  22
TORSDOF 4
ENDMDL
MODEL 7
REMARK VINA RESULT:      -4.4      1.859      7.122
REMARK  Name = .\Apigenin.pdb
REMARK  4 active torsions:
REMARK  status: ('A' for Active; 'I' for Inactive)
REMARK    1  A    between atoms: C3_3  and  O5_20
REMARK    2  A    between atoms: C6_6  and  C7_7
REMARK    3  A    between atoms: C11_12  and  O4_19
REMARK    4  A    between atoms: C13_14  and  O3_18
REMARK                            x       y       z     vdW  Elec       q    Type
REMARK                         _______ _______ _______ _____ _____    ______ ____
ROOT
ATOM      1  C7  UNL     1      -2.822  87.165  62.346  0.00  0.00    +0.000 A 
ATOM      2  C8  UNL     1      -2.389  86.697  63.597  0.00  0.00    +0.000 A 
ATOM      3  C9  UNL     1      -1.100  86.182  63.740  0.00  0.00    +0.000 A 
ATOM      4  O1  UNL     1      -0.752  85.773  64.877  0.00  0.00    +0.000 OA
ATOM      5  C10 UNL     1      -0.231  86.131  62.623  0.00  0.00    +0.000 A 
ATOM      6  C11 UNL     1       1.109  85.627  62.642  0.00  0.00    +0.000 A 
ATOM      7  C12 UNL     1       1.865  85.634  61.463  0.00  0.00    +0.000 A 
ATOM      8  C13 UNL     1       1.336  86.125  60.267  0.00  0.00    +0.000 A 
ATOM      9  C14 UNL     1       0.035  86.617  60.238  0.00  0.00    +0.000 A 
ATOM     10  C15 UNL     1      -0.746  86.624  61.395  0.00  0.00    +0.000 A 
ATOM     11  O2  UNL     1      -1.983  87.105  61.317  0.00  0.00    +0.000 OA
ENDROOT
BRANCH   1  17
ATOM     12  C1  UNL     1      -5.294  86.937  61.741  0.00  0.00    +0.000 A 
ATOM     13  C2  UNL     1      -6.550  87.515  61.533  0.00  0.00    +0.000 A 
ATOM     14  C3  UNL     1      -6.729  88.893  61.690  0.00  0.00    +0.000 A 
ATOM     15  C4  UNL     1      -5.644  89.691  62.056  0.00  0.00    +0.000 A 
ATOM     16  C5  UNL     1      -4.387  89.120  62.265  0.00  0.00    +0.000 A 
ATOM     17  C6  UNL     1      -4.186  87.732  62.112  0.00  0.00    +0.000 A 
BRANCH  14  18
ATOM     18  O5  UNL     1      -7.976  89.478  61.485  0.00  0.00    +0.000 OA
ATOM     19  H10 UNL     1      -8.831  89.021  61.782  0.00  0.00    +0.000 HD
ENDBRANCH  14  18
ENDBRANCH   1  17
BRANCH   8  20
ATOM     20  O3  UNL     1       2.099  86.126  59.102  0.00  0.00    +0.000 OA
ATOM     21  H8  UNL     1       2.985  85.637  59.046  0.00  0.00    +0.000 HD
ENDBRANCH   8  20
BRANCH   6  22
ATOM     22  O4  UNL     1       1.748  85.111  63.775  0.00  0.00    +0.000 OA
ATOM     23  H9  UNL     1       2.726  85.190  63.998  0.00  0.00    +0.000 HD
ENDBRANCH   6  22
TORSDOF 4
ENDMDL
MODEL 8
REMARK VINA RESULT:      -4.3      2.160      6.666
REMARK  Name = .\Apigenin.pdb
REMARK  4 active torsions:
REMARK  status: ('A' for Active; 'I' for Inactive)
REMARK    1  A    between atoms: C3_3  and  O5_20
REMARK    2  A    between atoms: C6_6  and  C7_7
REMARK    3  A    between atoms: C11_12  and  O4_19
REMARK    4  A    between atoms: C13_14  and  O3_18
REMARK                            x       y       z     vdW  Elec       q    Type
REMARK                         _______ _______ _______ _____ _____    ______ ____
ROOT
ATOM      1  C7  UNL     1      -3.004  86.882  61.689  0.00  0.00    +0.000 A 
ATOM      2  C8  UNL     1      -3.035  85.567  61.197  0.00  0.00    +0.000 A 
ATOM      3  C9  UNL     1      -1.866  84.976  60.715  0.00  0.00    +0.000 A 
ATOM      4  O1  UNL     1      -1.937  83.798  60.283  0.00  0.00    +0.000 OA
ATOM      5  C10 UNL     1      -0.651  85.704  60.721  0.00  0.00    +0.000 A 
ATOM      6  C11 UNL     1       0.609  85.210  60.255  0.00  0.00    +0.000 A 
ATOM      7  C12 UNL     1       1.739  86.035  60.318  0.00  0.00    +0.000 A 
ATOM      8  C13 UNL     1       1.660  87.333  60.828  0.00  0.00    +0.000 A 
ATOM      9  C14 UNL     1       0.439  87.823  61.283  0.00  0.00    +0.000 A 
ATOM     10  C15 UNL     1      -0.707  87.027  61.235  0.00  0.00    +0.000 A 
ATOM     11  O2  UNL     1      -1.848  87.539  61.682  0.00  0.00    +0.000 OA
ENDROOT
BRANCH   1  17
ATOM     12  C1  UNL     1      -5.519  87.332  61.748  0.00  0.00    +0.000 A 
ATOM     13  C2  UNL     1      -6.616  88.016  62.280  0.00  0.00    +0.000 A 
ATOM     14  C3  UNL     1      -6.435  88.962  63.294  0.00  0.00    +0.000 A 
ATOM     15  C4  UNL     1      -5.151  89.222  63.773  0.00  0.00    +0.000 A 
ATOM     16  C5  UNL     1      -4.050  88.543  63.246  0.00  0.00    +0.000 A 
ATOM     17  C6  UNL     1      -4.212  87.584  62.223  0.00  0.00    +0.000 A 
BRANCH  14  18
ATOM     18  O5  UNL     1      -7.522  89.649  63.830  0.00  0.00    +0.000 OA
ATOM     19  H10 UNL     1      -7.704  89.657  64.827  0.00  0.00    +0.000 HD
ENDBRANCH  14  18
ENDBRANCH   1  17
BRANCH   8  20
ATOM     20  O3  UNL     1       2.791  88.144  60.885  0.00  0.00    +0.000 OA
ATOM     21  H8  UNL     1       2.750  89.129  60.656  0.00  0.00    +0.000 HD
ENDBRANCH   8  20
BRANCH   6  22
ATOM     22  O4  UNL     1       0.815  83.931  59.725  0.00  0.00    +0.000 OA
ATOM     23  H9  UNL     1       0.365  83.082  60.022  0.00  0.00    +0.000 HD
ENDBRANCH   6  22
TORSDOF 4
ENDMDL
MODEL 9
REMARK VINA RESULT:      -4.2      2.335      6.919
REMARK  Name = .\Apigenin.pdb
REMARK  4 active torsions:
REMARK  status: ('A' for Active; 'I' for Inactive)
REMARK    1  A    between atoms: C3_3  and  O5_20
REMARK    2  A    between atoms: C6_6  and  C7_7
REMARK    3  A    between atoms: C11_12  and  O4_19
REMARK    4  A    between atoms: C13_14  and  O3_18
REMARK                            x       y       z     vdW  Elec       q    Type
REMARK                         _______ _______ _______ _____ _____    ______ ____
ROOT
ATOM      1  C7  UNL     1      -2.932  88.081  61.913  0.00  0.00    +0.000 A 
ATOM      2  C8  UNL     1      -2.542  88.821  60.786  0.00  0.00    +0.000 A 
ATOM      3  C9  UNL     1      -1.341  88.525  60.139  0.00  0.00    +0.000 A 
ATOM      4  O1  UNL     1      -1.029  89.212  59.134  0.00  0.00    +0.000 OA
ATOM      5  C10 UNL     1      -0.516  87.480  60.623  0.00  0.00    +0.000 A 
ATOM      6  C11 UNL     1       0.734  87.083  60.049  0.00  0.00    +0.000 A 
ATOM      7  C12 UNL     1       1.453  86.029  60.627  0.00  0.00    +0.000 A 
ATOM      8  C13 UNL     1       0.973  85.357  61.753  0.00  0.00    +0.000 A 
ATOM      9  C14 UNL     1      -0.241  85.735  62.318  0.00  0.00    +0.000 A 
ATOM     10  C15 UNL     1      -0.984  86.782  61.768  0.00  0.00    +0.000 A 
ATOM     11  O2  UNL     1      -2.137  87.106  62.343  0.00  0.00    +0.000 OA
ENDROOT
BRANCH   1  17
ATOM     12  C1  UNL     1      -5.479  88.209  62.067  0.00  0.00    +0.000 A 
ATOM     13  C2  UNL     1      -6.639  88.458  62.808  0.00  0.00    +0.000 A 
ATOM     14  C3  UNL     1      -6.551  88.839  64.151  0.00  0.00    +0.000 A 
ATOM     15  C4  UNL     1      -5.298  88.969  64.750  0.00  0.00    +0.000 A 
ATOM     16  C5  UNL     1      -4.136  88.721  64.015  0.00  0.00    +0.000 A 
ATOM     17  C6  UNL     1      -4.203  88.336  62.660  0.00  0.00    +0.000 A 
BRANCH  14  18
ATOM     18  O5  UNL     1      -7.700  89.090  64.896  0.00  0.00    +0.000 OA
ATOM     19  H10 UNL     1      -8.495  88.461  64.873  0.00  0.00    +0.000 HD
ENDBRANCH  14  18
ENDBRANCH   1  17
BRANCH   8  20
ATOM     20  O3  UNL     1       1.698  84.310  62.317  0.00  0.00    +0.000 OA
ATOM     21  H8  UNL     1       1.239  83.534  62.779  0.00  0.00    +0.000 HD
ENDBRANCH   8  20
BRANCH   6  22
ATOM     22  O4  UNL     1       1.317  87.678  58.925  0.00  0.00    +0.000 OA
ATOM     23  H9  UNL     1       2.092  88.319  58.923  0.00  0.00    +0.000 HD
ENDBRANCH   6  22
TORSDOF 4
ENDMDL
