MODEL 1
REMARK VINA RESULT:      -8.3      0.000      0.000
REMARK  Name = .\Apigenin.pdb
REMARK  4 active torsions:
REMARK  status: ('A' for Active; 'I' for Inactive)
REMARK    1  A    between atoms: C3_3  and  O5_20
REMARK    2  A    between atoms: C6_6  and  C7_7
REMARK    3  A    between atoms: C11_12  and  O4_19
REMARK    4  A    between atoms: C13_14  and  O3_18
REMARK                            x       y       z     vdW  Elec       q    Type
REMARK                         _______ _______ _______ _____ _____    ______ ____
ROOT
ATOM      1  C7  UNL     1     -20.303  53.900 -31.277  0.00  0.00    +0.000 A 
ATOM      2  C8  UNL     1     -19.956  55.258 -31.214  0.00  0.00    +0.000 A 
ATOM      3  C9  UNL     1     -19.017  55.693 -30.277  0.00  0.00    +0.000 A 
ATOM      4  O1  UNL     1     -18.734  56.918 -30.253  0.00  0.00    +0.000 OA
ATOM      5  C10 UNL     1     -18.419  54.765 -29.391  0.00  0.00    +0.000 A 
ATOM      6  C11 UNL     1     -17.447  55.088 -28.390  0.00  0.00    +0.000 A 
ATOM      7  C12 UNL     1     -16.932  54.071 -27.576  0.00  0.00    +0.000 A 
ATOM      8  C13 UNL     1     -17.348  52.745 -27.723  0.00  0.00    +0.000 A 
ATOM      9  C14 UNL     1     -18.292  52.421 -28.693  0.00  0.00    +0.000 A 
ATOM     10  C15 UNL     1     -18.826  53.411 -29.521  0.00  0.00    +0.000 A 
ATOM     11  O2  UNL     1     -19.724  53.052 -30.433  0.00  0.00    +0.000 OA
ENDROOT
BRANCH   1  17
ATOM     12  C1  UNL     1     -22.585  53.911 -32.428  0.00  0.00    +0.000 A 
ATOM     13  C2  UNL     1     -23.480  53.364 -33.353  0.00  0.00    +0.000 A 
ATOM     14  C3  UNL     1     -23.112  52.255 -34.121  0.00  0.00    +0.000 A 
ATOM     15  C4  UNL     1     -21.845  51.693 -33.958  0.00  0.00    +0.000 A 
ATOM     16  C5  UNL     1     -20.947  52.235 -33.035  0.00  0.00    +0.000 A 
ATOM     17  C6  UNL     1     -21.298  53.354 -32.252  0.00  0.00    +0.000 A 
BRANCH  14  18
ATOM     18  O5  UNL     1     -23.997  51.703 -35.044  0.00  0.00    +0.000 OA
ATOM     19  H10 UNL     1     -24.344  52.239 -35.831  0.00  0.00    +0.000 HD
ENDBRANCH  14  18
ENDBRANCH   1  17
BRANCH   8  20
ATOM     20  O3  UNL     1     -16.828  51.743 -26.908  0.00  0.00    +0.000 OA
ATOM     21  H8  UNL     1     -17.202  50.802 -26.919  0.00  0.00    +0.000 HD
ENDBRANCH   8  20
BRANCH   6  22
ATOM     22  O4  UNL     1     -16.953  56.374 -28.147  0.00  0.00    +0.000 OA
ATOM     23  H9  UNL     1     -17.093  57.186 -28.724  0.00  0.00    +0.000 HD
ENDBRANCH   6  22
TORSDOF 4
ENDMDL
MODEL 2
REMARK VINA RESULT:      -8.3      0.091      1.084
REMARK  Name = .\Apigenin.pdb
REMARK  4 active torsions:
REMARK  status: ('A' for Active; 'I' for Inactive)
REMARK    1  A    between atoms: C3_3  and  O5_20
REMARK    2  A    between atoms: C6_6  and  C7_7
REMARK    3  A    between atoms: C11_12  and  O4_19
REMARK    4  A    between atoms: C13_14  and  O3_18
REMARK                            x       y       z     vdW  Elec       q    Type
REMARK                         _______ _______ _______ _____ _____    ______ ____
ROOT
ATOM      1  C7  UNL     1     -20.317  53.870 -31.299  0.00  0.00    +0.000 A 
ATOM      2  C8  UNL     1     -19.979  55.232 -31.236  0.00  0.00    +0.000 A 
ATOM      3  C9  UNL     1     -19.045  55.674 -30.298  0.00  0.00    +0.000 A 
ATOM      4  O1  UNL     1     -18.773  56.901 -30.274  0.00  0.00    +0.000 OA
ATOM      5  C10 UNL     1     -18.441  54.751 -29.411  0.00  0.00    +0.000 A 
ATOM      6  C11 UNL     1     -17.473  55.082 -28.409  0.00  0.00    +0.000 A 
ATOM      7  C12 UNL     1     -16.952  54.069 -27.595  0.00  0.00    +0.000 A 
ATOM      8  C13 UNL     1     -17.356  52.741 -27.742  0.00  0.00    +0.000 A 
ATOM      9  C14 UNL     1     -18.297  52.409 -28.712  0.00  0.00    +0.000 A 
ATOM     10  C15 UNL     1     -18.838  53.394 -29.541  0.00  0.00    +0.000 A 
ATOM     11  O2  UNL     1     -19.732  53.027 -30.454  0.00  0.00    +0.000 OA
ENDROOT
BRANCH   1  17
ATOM     12  C1  UNL     1     -21.035  52.195 -33.090  0.00  0.00    +0.000 A 
ATOM     13  C2  UNL     1     -21.994  51.716 -33.988  0.00  0.00    +0.000 A 
ATOM     14  C3  UNL     1     -23.239  52.343 -34.093  0.00  0.00    +0.000 A 
ATOM     15  C4  UNL     1     -23.522  53.452 -33.295  0.00  0.00    +0.000 A 
ATOM     16  C5  UNL     1     -22.568  53.936 -32.396  0.00  0.00    +0.000 A 
ATOM     17  C6  UNL     1     -21.306  53.317 -32.275  0.00  0.00    +0.000 A 
BRANCH  14  18
ATOM     18  O5  UNL     1     -24.201  51.873 -34.985  0.00  0.00    +0.000 OA
ATOM     19  H10 UNL     1     -25.001  51.338 -34.668  0.00  0.00    +0.000 HD
ENDBRANCH  14  18
ENDBRANCH   1  17
BRANCH   8  20
ATOM     20  O3  UNL     1     -16.830  51.743 -26.925  0.00  0.00    +0.000 OA
ATOM     21  H8  UNL     1     -15.846  51.719 -26.683  0.00  0.00    +0.000 HD
ENDBRANCH   8  20
BRANCH   6  22
ATOM     22  O4  UNL     1     -16.990  56.372 -28.166  0.00  0.00    +0.000 OA
ATOM     23  H9  UNL     1     -16.814  56.785 -27.266  0.00  0.00    +0.000 HD
ENDBRANCH   6  22
TORSDOF 4
ENDMDL
MODEL 3
REMARK VINA RESULT:      -7.8      1.061      1.276
REMARK  Name = .\Apigenin.pdb
REMARK  4 active torsions:
REMARK  status: ('A' for Active; 'I' for Inactive)
REMARK    1  A    between atoms: C3_3  and  O5_20
REMARK    2  A    between atoms: C6_6  and  C7_7
REMARK    3  A    between atoms: C11_12  and  O4_19
REMARK    4  A    between atoms: C13_14  and  O3_18
REMARK                            x       y       z     vdW  Elec       q    Type
REMARK                         _______ _______ _______ _____ _____    ______ ____
ROOT
ATOM      1  C7  UNL     1     -20.282  54.738 -31.408  0.00  0.00    +0.000 A 
ATOM      2  C8  UNL     1     -19.739  56.011 -31.175  0.00  0.00    +0.000 A 
ATOM      3  C9  UNL     1     -18.773  56.184 -30.182  0.00  0.00    +0.000 A 
ATOM      4  O1  UNL     1     -18.313  57.340 -30.005  0.00  0.00    +0.000 OA
ATOM      5  C10 UNL     1     -18.344  55.076 -29.411  0.00  0.00    +0.000 A 
ATOM      6  C11 UNL     1     -17.364  55.127 -28.369  0.00  0.00    +0.000 A 
ATOM      7  C12 UNL     1     -17.028  53.953 -27.682  0.00  0.00    +0.000 A 
ATOM      8  C13 UNL     1     -17.631  52.733 -27.995  0.00  0.00    +0.000 A 
ATOM      9  C14 UNL     1     -18.585  52.674 -29.007  0.00  0.00    +0.000 A 
ATOM     10  C15 UNL     1     -18.943  53.824 -29.712  0.00  0.00    +0.000 A 
ATOM     11  O2  UNL     1     -19.859  53.717 -30.669  0.00  0.00    +0.000 OA
ENDROOT
BRANCH   1  17
ATOM     12  C1  UNL     1     -22.431  53.627 -32.231  0.00  0.00    +0.000 A 
ATOM     13  C2  UNL     1     -23.374  53.408 -33.241  0.00  0.00    +0.000 A 
ATOM     14  C3  UNL     1     -23.228  54.022 -34.489  0.00  0.00    +0.000 A 
ATOM     15  C4  UNL     1     -22.135  54.856 -34.723  0.00  0.00    +0.000 A 
ATOM     16  C5  UNL     1     -21.189  55.079 -33.719  0.00  0.00    +0.000 A 
ATOM     17  C6  UNL     1     -21.319  54.469 -32.453  0.00  0.00    +0.000 A 
BRANCH  14  18
ATOM     18  O5  UNL     1     -24.161  53.809 -35.501  0.00  0.00    +0.000 OA
ATOM     19  H10 UNL     1     -24.719  54.568 -35.875  0.00  0.00    +0.000 HD
ENDBRANCH  14  18
ENDBRANCH   1  17
BRANCH   8  20
ATOM     20  O3  UNL     1     -17.288  51.573 -27.304  0.00  0.00    +0.000 OA
ATOM     21  H8  UNL     1     -16.927  51.606 -26.358  0.00  0.00    +0.000 HD
ENDBRANCH   8  20
BRANCH   6  22
ATOM     22  O4  UNL     1     -16.692  56.285 -27.965  0.00  0.00    +0.000 OA
ATOM     23  H9  UNL     1     -17.017  57.232 -28.070  0.00  0.00    +0.000 HD
ENDBRANCH   6  22
TORSDOF 4
ENDMDL
MODEL 4
REMARK VINA RESULT:      -7.8      2.414      6.570
REMARK  Name = .\Apigenin.pdb
REMARK  4 active torsions:
REMARK  status: ('A' for Active; 'I' for Inactive)
REMARK    1  A    between atoms: C3_3  and  O5_20
REMARK    2  A    between atoms: C6_6  and  C7_7
REMARK    3  A    between atoms: C11_12  and  O4_19
REMARK    4  A    between atoms: C13_14  and  O3_18
REMARK                            x       y       z     vdW  Elec       q    Type
REMARK                         _______ _______ _______ _____ _____    ______ ____
ROOT
ATOM      1  C7  UNL     1     -17.799  52.186 -27.846  0.00  0.00    +0.000 A 
ATOM      2  C8  UNL     1     -17.206  53.407 -27.489  0.00  0.00    +0.000 A 
ATOM      3  C9  UNL     1     -17.534  54.571 -28.188  0.00  0.00    +0.000 A 
ATOM      4  O1  UNL     1     -16.980  55.643 -27.837  0.00  0.00    +0.000 OA
ATOM      5  C10 UNL     1     -18.462  54.517 -29.256  0.00  0.00    +0.000 A 
ATOM      6  C11 UNL     1     -18.877  55.637 -30.045  0.00  0.00    +0.000 A 
ATOM      7  C12 UNL     1     -19.805  55.446 -31.076  0.00  0.00    +0.000 A 
ATOM      8  C13 UNL     1     -20.336  54.184 -31.349  0.00  0.00    +0.000 A 
ATOM      9  C14 UNL     1     -19.939  53.088 -30.587  0.00  0.00    +0.000 A 
ATOM     10  C15 UNL     1     -19.015  53.243 -29.552  0.00  0.00    +0.000 A 
ATOM     11  O2  UNL     1     -18.667  52.167 -28.853  0.00  0.00    +0.000 OA
ENDROOT
BRANCH   1  17
ATOM     12  C1  UNL     1     -16.187  50.466 -26.859  0.00  0.00    +0.000 A 
ATOM     13  C2  UNL     1     -15.962  49.252 -26.203  0.00  0.00    +0.000 A 
ATOM     14  C3  UNL     1     -17.038  48.444 -25.822  0.00  0.00    +0.000 A 
ATOM     15  C4  UNL     1     -18.342  48.856 -26.101  0.00  0.00    +0.000 A 
ATOM     16  C5  UNL     1     -18.574  50.068 -26.756  0.00  0.00    +0.000 A 
ATOM     17  C6  UNL     1     -17.502  50.897 -27.147  0.00  0.00    +0.000 A 
BRANCH  14  18
ATOM     18  O5  UNL     1     -16.823  47.233 -25.169  0.00  0.00    +0.000 OA
ATOM     19  H10 UNL     1     -16.218  47.168 -24.359  0.00  0.00    +0.000 HD
ENDBRANCH  14  18
ENDBRANCH   1  17
BRANCH   8  20
ATOM     20  O3  UNL     1     -21.259  54.008 -32.377  0.00  0.00    +0.000 OA
ATOM     21  H8  UNL     1     -21.140  53.288 -33.080  0.00  0.00    +0.000 HD
ENDBRANCH   8  20
BRANCH   6  22
ATOM     22  O4  UNL     1     -18.418  56.947 -29.870  0.00  0.00    +0.000 OA
ATOM     23  H9  UNL     1     -17.713  57.412 -30.416  0.00  0.00    +0.000 HD
ENDBRANCH   6  22
TORSDOF 4
ENDMDL
MODEL 5
REMARK VINA RESULT:      -7.5      1.281      2.902
REMARK  Name = .\Apigenin.pdb
REMARK  4 active torsions:
REMARK  status: ('A' for Active; 'I' for Inactive)
REMARK    1  A    between atoms: C3_3  and  O5_20
REMARK    2  A    between atoms: C6_6  and  C7_7
REMARK    3  A    between atoms: C11_12  and  O4_19
REMARK    4  A    between atoms: C13_14  and  O3_18
REMARK                            x       y       z     vdW  Elec       q    Type
REMARK                         _______ _______ _______ _____ _____    ______ ____
ROOT
ATOM      1  C7  UNL     1     -20.354  53.845 -31.308  0.00  0.00    +0.000 A 
ATOM      2  C8  UNL     1     -19.783  52.966 -30.374  0.00  0.00    +0.000 A 
ATOM      3  C9  UNL     1     -18.856  53.443 -29.446  0.00  0.00    +0.000 A 
ATOM      4  O1  UNL     1     -18.368  52.623 -28.628  0.00  0.00    +0.000 OA
ATOM      5  C10 UNL     1     -18.491  54.812 -29.450  0.00  0.00    +0.000 A 
ATOM      6  C11 UNL     1     -17.555  55.418 -28.552  0.00  0.00    +0.000 A 
ATOM      7  C12 UNL     1     -17.283  56.787 -28.663  0.00  0.00    +0.000 A 
ATOM      8  C13 UNL     1     -17.909  57.574 -29.632  0.00  0.00    +0.000 A 
ATOM      9  C14 UNL     1     -18.821  56.994 -30.509  0.00  0.00    +0.000 A 
ATOM     10  C15 UNL     1     -19.115  55.632 -30.427  0.00  0.00    +0.000 A 
ATOM     11  O2  UNL     1     -19.992  55.124 -31.286  0.00  0.00    +0.000 OA
ENDROOT
BRANCH   1  17
ATOM     12  C1  UNL     1     -22.604  54.052 -32.503  0.00  0.00    +0.000 A 
ATOM     13  C2  UNL     1     -23.506  53.609 -33.476  0.00  0.00    +0.000 A 
ATOM     14  C3  UNL     1     -23.183  52.523 -34.296  0.00  0.00    +0.000 A 
ATOM     15  C4  UNL     1     -21.954  51.882 -34.140  0.00  0.00    +0.000 A 
ATOM     16  C5  UNL     1     -21.049  52.319 -33.170  0.00  0.00    +0.000 A 
ATOM     17  C6  UNL     1     -21.355  53.412 -32.332  0.00  0.00    +0.000 A 
BRANCH  14  18
ATOM     18  O5  UNL     1     -24.075  52.075 -35.267  0.00  0.00    +0.000 OA
ATOM     19  H10 UNL     1     -23.953  52.307 -36.246  0.00  0.00    +0.000 HD
ENDBRANCH  14  18
ENDBRANCH   1  17
BRANCH   8  20
ATOM     20  O3  UNL     1     -17.630  58.935 -29.731  0.00  0.00    +0.000 OA
ATOM     21  H8  UNL     1     -16.774  59.272 -30.156  0.00  0.00    +0.000 HD
ENDBRANCH   8  20
BRANCH   6  22
ATOM     22  O4  UNL     1     -16.866  54.737 -27.543  0.00  0.00    +0.000 OA
ATOM     23  H9  UNL     1     -15.880  54.796 -27.348  0.00  0.00    +0.000 HD
ENDBRANCH   6  22
TORSDOF 4
ENDMDL
MODEL 6
REMARK VINA RESULT:      -7.4      3.282      6.548
REMARK  Name = .\Apigenin.pdb
REMARK  4 active torsions:
REMARK  status: ('A' for Active; 'I' for Inactive)
REMARK    1  A    between atoms: C3_3  and  O5_20
REMARK    2  A    between atoms: C6_6  and  C7_7
REMARK    3  A    between atoms: C11_12  and  O4_19
REMARK    4  A    between atoms: C13_14  and  O3_18
REMARK                            x       y       z     vdW  Elec       q    Type
REMARK                         _______ _______ _______ _____ _____    ______ ____
ROOT
ATOM      1  C7  UNL     1     -18.691  57.597 -29.714  0.00  0.00    +0.000 A 
ATOM      2  C8  UNL     1     -19.449  56.992 -30.729  0.00  0.00    +0.000 A 
ATOM      3  C9  UNL     1     -19.563  55.602 -30.777  0.00  0.00    +0.000 A 
ATOM      4  O1  UNL     1     -20.250  55.100 -31.703  0.00  0.00    +0.000 OA
ATOM      5  C10 UNL     1     -18.913  54.804 -29.805  0.00  0.00    +0.000 A 
ATOM      6  C11 UNL     1     -18.954  53.374 -29.749  0.00  0.00    +0.000 A 
ATOM      7  C12 UNL     1     -18.265  52.704 -28.731  0.00  0.00    +0.000 A 
ATOM      8  C13 UNL     1     -17.538  53.405 -27.766  0.00  0.00    +0.000 A 
ATOM      9  C14 UNL     1     -17.492  54.795 -27.811  0.00  0.00    +0.000 A 
ATOM     10  C15 UNL     1     -18.167  55.495 -28.813  0.00  0.00    +0.000 A 
ATOM     11  O2  UNL     1     -18.093  56.821 -28.815  0.00  0.00    +0.000 OA
ENDROOT
BRANCH   1  17
ATOM     12  C1  UNL     1     -18.181  59.714 -28.377  0.00  0.00    +0.000 A 
ATOM     13  C2  UNL     1     -18.034  61.104 -28.315  0.00  0.00    +0.000 A 
ATOM     14  C3  UNL     1     -18.222  61.886 -29.459  0.00  0.00    +0.000 A 
ATOM     15  C4  UNL     1     -18.560  61.273 -30.665  0.00  0.00    +0.000 A 
ATOM     16  C5  UNL     1     -18.708  59.885 -30.734  0.00  0.00    +0.000 A 
ATOM     17  C6  UNL     1     -18.521  59.078 -29.592  0.00  0.00    +0.000 A 
BRANCH  14  18
ATOM     18  O5  UNL     1     -18.079  63.270 -29.406  0.00  0.00    +0.000 OA
ATOM     19  H10 UNL     1     -18.566  63.878 -30.055  0.00  0.00    +0.000 HD
ENDBRANCH  14  18
ENDBRANCH   1  17
BRANCH   8  20
ATOM     20  O3  UNL     1     -16.857  52.727 -26.758  0.00  0.00    +0.000 OA
ATOM     21  H8  UNL     1     -15.846  52.750 -26.691  0.00  0.00    +0.000 HD
ENDBRANCH   8  20
BRANCH   6  22
ATOM     22  O4  UNL     1     -19.646  52.563 -30.655  0.00  0.00    +0.000 OA
ATOM     23  H9  UNL     1     -20.151  52.871 -31.469  0.00  0.00    +0.000 HD
ENDBRANCH   6  22
TORSDOF 4
ENDMDL
MODEL 7
REMARK VINA RESULT:      -7.3      3.438      6.384
REMARK  Name = .\Apigenin.pdb
REMARK  4 active torsions:
REMARK  status: ('A' for Active; 'I' for Inactive)
REMARK    1  A    between atoms: C3_3  and  O5_20
REMARK    2  A    between atoms: C6_6  and  C7_7
REMARK    3  A    between atoms: C11_12  and  O4_19
REMARK    4  A    between atoms: C13_14  and  O3_18
REMARK                            x       y       z     vdW  Elec       q    Type
REMARK                         _______ _______ _______ _____ _____    ______ ____
ROOT
ATOM      1  C7  UNL     1     -18.433  55.653 -29.685  0.00  0.00    +0.000 A 
ATOM      2  C8  UNL     1     -18.968  55.663 -30.983  0.00  0.00    +0.000 A 
ATOM      3  C9  UNL     1     -19.177  56.876 -31.640  0.00  0.00    +0.000 A 
ATOM      4  O1  UNL     1     -19.658  56.840 -32.801  0.00  0.00    +0.000 OA
ATOM      5  C10 UNL     1     -18.850  58.095 -30.998  0.00  0.00    +0.000 A 
ATOM      6  C11 UNL     1     -19.018  59.398 -31.566  0.00  0.00    +0.000 A 
ATOM      7  C12 UNL     1     -18.654  60.526 -30.821  0.00  0.00    +0.000 A 
ATOM      8  C13 UNL     1     -18.128  60.405 -29.533  0.00  0.00    +0.000 A 
ATOM      9  C14 UNL     1     -17.961  59.142 -28.971  0.00  0.00    +0.000 A 
ATOM     10  C15 UNL     1     -18.314  57.996 -29.686  0.00  0.00    +0.000 A 
ATOM     11  O2  UNL     1     -18.136  56.813 -29.108  0.00  0.00    +0.000 OA
ENDROOT
BRANCH   1  17
ATOM     12  C1  UNL     1     -18.768  53.157 -29.251  0.00  0.00    +0.000 A 
ATOM     13  C2  UNL     1     -18.498  52.010 -28.498  0.00  0.00    +0.000 A 
ATOM     14  C3  UNL     1     -17.637  52.074 -27.397  0.00  0.00    +0.000 A 
ATOM     15  C4  UNL     1     -17.048  53.290 -27.052  0.00  0.00    +0.000 A 
ATOM     16  C5  UNL     1     -17.314  54.440 -27.800  0.00  0.00    +0.000 A 
ATOM     17  C6  UNL     1     -18.178  54.396 -28.914  0.00  0.00    +0.000 A 
BRANCH  14  18
ATOM     18  O5  UNL     1     -17.363  50.936 -26.641  0.00  0.00    +0.000 OA
ATOM     19  H10 UNL     1     -17.144  50.049 -27.079  0.00  0.00    +0.000 HD
ENDBRANCH  14  18
ENDBRANCH   1  17
BRANCH   8  20
ATOM     20  O3  UNL     1     -17.770  61.535 -28.803  0.00  0.00    +0.000 OA
ATOM     21  H8  UNL     1     -17.667  61.507 -27.795  0.00  0.00    +0.000 HD
ENDBRANCH   8  20
BRANCH   6  22
ATOM     22  O4  UNL     1     -19.533  59.648 -32.843  0.00  0.00    +0.000 OA
ATOM     23  H9  UNL     1     -20.385  60.138 -33.058  0.00  0.00    +0.000 HD
ENDBRANCH   6  22
TORSDOF 4
ENDMDL
MODEL 8
REMARK VINA RESULT:      -6.9      3.991      7.319
REMARK  Name = .\Apigenin.pdb
REMARK  4 active torsions:
REMARK  status: ('A' for Active; 'I' for Inactive)
REMARK    1  A    between atoms: C3_3  and  O5_20
REMARK    2  A    between atoms: C6_6  and  C7_7
REMARK    3  A    between atoms: C11_12  and  O4_19
REMARK    4  A    between atoms: C13_14  and  O3_18
REMARK                            x       y       z     vdW  Elec       q    Type
REMARK                         _______ _______ _______ _____ _____    ______ ____
ROOT
ATOM      1  C7  UNL     1     -17.572  50.974 -27.085  0.00  0.00    +0.000 A 
ATOM      2  C8  UNL     1     -16.357  50.668 -26.450  0.00  0.00    +0.000 A 
ATOM      3  C9  UNL     1     -16.193  49.433 -25.820  0.00  0.00    +0.000 A 
ATOM      4  O1  UNL     1     -15.091  49.199 -25.264  0.00  0.00    +0.000 OA
ATOM      5  C10 UNL     1     -17.252  48.493 -25.821  0.00  0.00    +0.000 A 
ATOM      6  C11 UNL     1     -17.205  47.198 -25.211  0.00  0.00    +0.000 A 
ATOM      7  C12 UNL     1     -18.326  46.362 -25.284  0.00  0.00    +0.000 A 
ATOM      8  C13 UNL     1     -19.489  46.766 -25.943  0.00  0.00    +0.000 A 
ATOM      9  C14 UNL     1     -19.545  48.022 -26.539  0.00  0.00    +0.000 A 
ATOM     10  C15 UNL     1     -18.446  48.881 -26.484  0.00  0.00    +0.000 A 
ATOM     11  O2  UNL     1     -18.547  50.071 -27.068  0.00  0.00    +0.000 OA
ENDROOT
BRANCH   1  17
ATOM     12  C1  UNL     1     -18.707  52.396 -28.880  0.00  0.00    +0.000 A 
ATOM     13  C2  UNL     1     -18.910  53.634 -29.498  0.00  0.00    +0.000 A 
ATOM     14  C3  UNL     1     -18.241  54.772 -29.037  0.00  0.00    +0.000 A 
ATOM     15  C4  UNL     1     -17.367  54.667 -27.954  0.00  0.00    +0.000 A 
ATOM     16  C5  UNL     1     -17.160  53.433 -27.332  0.00  0.00    +0.000 A 
ATOM     17  C6  UNL     1     -17.825  52.274 -27.782  0.00  0.00    +0.000 A 
BRANCH  14  18
ATOM     18  O5  UNL     1     -18.437  56.009 -29.647  0.00  0.00    +0.000 OA
ATOM     19  H10 UNL     1     -19.344  56.285 -30.005  0.00  0.00    +0.000 HD
ENDBRANCH  14  18
ENDBRANCH   1  17
BRANCH   8  20
ATOM     20  O3  UNL     1     -20.597  45.924 -26.009  0.00  0.00    +0.000 OA
ATOM     21  H8  UNL     1     -21.532  46.260 -25.812  0.00  0.00    +0.000 HD
ENDBRANCH   8  20
BRANCH   6  22
ATOM     22  O4  UNL     1     -16.101  46.682 -24.525  0.00  0.00    +0.000 OA
ATOM     23  H9  UNL     1     -15.298  46.235 -24.936  0.00  0.00    +0.000 HD
ENDBRANCH   6  22
TORSDOF 4
ENDMDL
MODEL 9
REMARK VINA RESULT:      -6.9      1.971      2.806
REMARK  Name = .\Apigenin.pdb
REMARK  4 active torsions:
REMARK  status: ('A' for Active; 'I' for Inactive)
REMARK    1  A    between atoms: C3_3  and  O5_20
REMARK    2  A    between atoms: C6_6  and  C7_7
REMARK    3  A    between atoms: C11_12  and  O4_19
REMARK    4  A    between atoms: C13_14  and  O3_18
REMARK                            x       y       z     vdW  Elec       q    Type
REMARK                         _______ _______ _______ _____ _____    ______ ____
ROOT
ATOM      1  C7  UNL     1     -21.048  54.610 -32.605  0.00  0.00    +0.000 A 
ATOM      2  C8  UNL     1     -20.924  55.788 -33.358  0.00  0.00    +0.000 A 
ATOM      3  C9  UNL     1     -20.106  56.823 -32.902  0.00  0.00    +0.000 A 
ATOM      4  O1  UNL     1     -20.023  57.861 -33.607  0.00  0.00    +0.000 OA
ATOM      5  C10 UNL     1     -19.404  56.684 -31.680  0.00  0.00    +0.000 A 
ATOM      6  C11 UNL     1     -18.538  57.671 -31.109  0.00  0.00    +0.000 A 
ATOM      7  C12 UNL     1     -17.902  57.407 -29.890  0.00  0.00    +0.000 A 
ATOM      8  C13 UNL     1     -18.094  56.197 -29.220  0.00  0.00    +0.000 A 
ATOM      9  C14 UNL     1     -18.934  55.231 -29.767  0.00  0.00    +0.000 A 
ATOM     10  C15 UNL     1     -19.585  55.462 -30.980  0.00  0.00    +0.000 A 
ATOM     11  O2  UNL     1     -20.376  54.509 -31.462  0.00  0.00    +0.000 OA
ENDROOT
BRANCH   1  17
ATOM     12  C1  UNL     1     -23.302  53.429 -32.834  0.00  0.00    +0.000 A 
ATOM     13  C2  UNL     1     -24.057  52.326 -33.245  0.00  0.00    +0.000 A 
ATOM     14  C3  UNL     1     -23.435  51.230 -33.852  0.00  0.00    +0.000 A 
ATOM     15  C4  UNL     1     -22.054  51.242 -34.046  0.00  0.00    +0.000 A 
ATOM     16  C5  UNL     1     -21.294  52.341 -33.638  0.00  0.00    +0.000 A 
ATOM     17  C6  UNL     1     -21.902  53.456 -33.025  0.00  0.00    +0.000 A 
BRANCH  14  18
ATOM     18  O5  UNL     1     -24.179  50.127 -34.263  0.00  0.00    +0.000 OA
ATOM     19  H10 UNL     1     -23.740  49.328 -34.707  0.00  0.00    +0.000 HD
ENDBRANCH  14  18
ENDBRANCH   1  17
BRANCH   8  20
ATOM     20  O3  UNL     1     -17.455  55.946 -28.008  0.00  0.00    +0.000 OA
ATOM     21  H8  UNL     1     -16.611  56.439 -27.741  0.00  0.00    +0.000 HD
ENDBRANCH   8  20
BRANCH   6  22
ATOM     22  O4  UNL     1     -18.266  58.918 -31.684  0.00  0.00    +0.000 OA
ATOM     23  H9  UNL     1     -17.590  59.589 -31.361  0.00  0.00    +0.000 HD
ENDBRANCH   6  22
TORSDOF 4
ENDMDL
