MODEL 1
REMARK VINA RESULT:      -5.6      0.000      0.000
REMARK  Name = .\Apigenin.pdb
REMARK  4 active torsions:
REMARK  status: ('A' for Active; 'I' for Inactive)
REMARK    1  A    between atoms: C3_3  and  O5_20
REMARK    2  A    between atoms: C6_6  and  C7_7
REMARK    3  A    between atoms: C11_12  and  O4_19
REMARK    4  A    between atoms: C13_14  and  O3_18
REMARK                            x       y       z     vdW  Elec       q    Type
REMARK                         _______ _______ _______ _____ _____    ______ ____
ROOT
ATOM      1  C7  UNL     1     -11.620  31.041   1.957  0.00  0.00    +0.000 A 
ATOM      2  C8  UNL     1     -10.565  31.967   1.968  0.00  0.00    +0.000 A 
ATOM      3  C9  UNL     1     -10.124  32.533   0.771  0.00  0.00    +0.000 A 
ATOM      4  O1  UNL     1      -9.176  33.357   0.825  0.00  0.00    +0.000 OA
ATOM      5  C10 UNL     1     -10.739  32.172  -0.452  0.00  0.00    +0.000 A 
ATOM      6  C11 UNL     1     -10.377  32.681  -1.740  0.00  0.00    +0.000 A 
ATOM      7  C12 UNL     1     -11.070  32.240  -2.875  0.00  0.00    +0.000 A 
ATOM      8  C13 UNL     1     -12.109  31.313  -2.774  0.00  0.00    +0.000 A 
ATOM      9  C14 UNL     1     -12.468  30.811  -1.526  0.00  0.00    +0.000 A 
ATOM     10  C15 UNL     1     -11.799  31.229  -0.375  0.00  0.00    +0.000 A 
ATOM     11  O2  UNL     1     -12.178  30.722   0.794  0.00  0.00    +0.000 OA
ENDROOT
BRANCH   1  17
ATOM     12  C1  UNL     1     -13.348  29.641   3.216  0.00  0.00    +0.000 A 
ATOM     13  C2  UNL     1     -13.803  29.053   4.401  0.00  0.00    +0.000 A 
ATOM     14  C3  UNL     1     -13.076  29.200   5.586  0.00  0.00    +0.000 A 
ATOM     15  C4  UNL     1     -11.892  29.938   5.583  0.00  0.00    +0.000 A 
ATOM     16  C5  UNL     1     -11.433  30.528   4.403  0.00  0.00    +0.000 A 
ATOM     17  C6  UNL     1     -12.151  30.391   3.196  0.00  0.00    +0.000 A 
BRANCH  14  18
ATOM     18  O5  UNL     1     -13.521  28.618   6.771  0.00  0.00    +0.000 OA
ATOM     19  H10 UNL     1     -14.418  28.863   7.177  0.00  0.00    +0.000 HD
ENDBRANCH  14  18
ENDBRANCH   1  17
BRANCH   8  20
ATOM     20  O3  UNL     1     -12.789  30.882  -3.910  0.00  0.00    +0.000 OA
ATOM     21  H8  UNL     1     -12.592  29.987  -4.341  0.00  0.00    +0.000 HD
ENDBRANCH   8  20
BRANCH   6  22
ATOM     22  O4  UNL     1      -9.358  33.612  -1.969  0.00  0.00    +0.000 OA
ATOM     23  H9  UNL     1      -9.316  34.279  -2.721  0.00  0.00    +0.000 HD
ENDBRANCH   6  22
TORSDOF 4
ENDMDL
MODEL 2
REMARK VINA RESULT:      -5.5      1.159      1.386
REMARK  Name = .\Apigenin.pdb
REMARK  4 active torsions:
REMARK  status: ('A' for Active; 'I' for Inactive)
REMARK    1  A    between atoms: C3_3  and  O5_20
REMARK    2  A    between atoms: C6_6  and  C7_7
REMARK    3  A    between atoms: C11_12  and  O4_19
REMARK    4  A    between atoms: C13_14  and  O3_18
REMARK                            x       y       z     vdW  Elec       q    Type
REMARK                         _______ _______ _______ _____ _____    ______ ____
ROOT
ATOM      1  C7  UNL     1     -11.561  30.800   2.866  0.00  0.00    +0.000 A 
ATOM      2  C8  UNL     1     -10.563  31.731   2.534  0.00  0.00    +0.000 A 
ATOM      3  C9  UNL     1     -10.455  32.198   1.223  0.00  0.00    +0.000 A 
ATOM      4  O1  UNL     1      -9.548  33.030   0.969  0.00  0.00    +0.000 OA
ATOM      5  C10 UNL     1     -11.349  31.731   0.230  0.00  0.00    +0.000 A 
ATOM      6  C11 UNL     1     -11.338  32.133  -1.144  0.00  0.00    +0.000 A 
ATOM      7  C12 UNL     1     -12.282  31.594  -2.027  0.00  0.00    +0.000 A 
ATOM      8  C13 UNL     1     -13.236  30.671  -1.592  0.00  0.00    +0.000 A 
ATOM      9  C14 UNL     1     -13.255  30.273  -0.258  0.00  0.00    +0.000 A 
ATOM     10  C15 UNL     1     -12.328  30.791   0.648  0.00  0.00    +0.000 A 
ATOM     11  O2  UNL     1     -12.386  30.381   1.911  0.00  0.00    +0.000 OA
ENDROOT
BRANCH   1  17
ATOM     12  C1  UNL     1     -12.954  29.673   4.688  0.00  0.00    +0.000 A 
ATOM     13  C2  UNL     1     -13.074  29.176   5.989  0.00  0.00    +0.000 A 
ATOM     14  C3  UNL     1     -11.995  29.246   6.875  0.00  0.00    +0.000 A 
ATOM     15  C4  UNL     1     -10.793  29.816   6.454  0.00  0.00    +0.000 A 
ATOM     16  C5  UNL     1     -10.666  30.315   5.155  0.00  0.00    +0.000 A 
ATOM     17  C6  UNL     1     -11.743  30.253   4.246  0.00  0.00    +0.000 A 
BRANCH  14  18
ATOM     18  O5  UNL     1     -12.106  28.754   8.173  0.00  0.00    +0.000 OA
ATOM     19  H10 UNL     1     -11.405  28.137   8.568  0.00  0.00    +0.000 HD
ENDBRANCH  14  18
ENDBRANCH   1  17
BRANCH   8  20
ATOM     20  O3  UNL     1     -14.169  30.142  -2.481  0.00  0.00    +0.000 OA
ATOM     21  H8  UNL     1     -14.223  29.147  -2.665  0.00  0.00    +0.000 HD
ENDBRANCH   8  20
BRANCH   6  22
ATOM     22  O4  UNL     1     -10.436  33.048  -1.698  0.00  0.00    +0.000 OA
ATOM     23  H9  UNL     1     -10.595  33.632  -2.501  0.00  0.00    +0.000 HD
ENDBRANCH   6  22
TORSDOF 4
ENDMDL
MODEL 3
REMARK VINA RESULT:      -5.3      1.132      2.762
REMARK  Name = .\Apigenin.pdb
REMARK  4 active torsions:
REMARK  status: ('A' for Active; 'I' for Inactive)
REMARK    1  A    between atoms: C3_3  and  O5_20
REMARK    2  A    between atoms: C6_6  and  C7_7
REMARK    3  A    between atoms: C11_12  and  O4_19
REMARK    4  A    between atoms: C13_14  and  O3_18
REMARK                            x       y       z     vdW  Elec       q    Type
REMARK                         _______ _______ _______ _____ _____    ______ ____
ROOT
ATOM      1  C7  UNL     1     -12.520  30.371   1.741  0.00  0.00    +0.000 A 
ATOM      2  C8  UNL     1     -13.478  29.878   0.841  0.00  0.00    +0.000 A 
ATOM      3  C9  UNL     1     -13.405  30.220  -0.510  0.00  0.00    +0.000 A 
ATOM      4  O1  UNL     1     -14.283  29.758  -1.282  0.00  0.00    +0.000 OA
ATOM      5  C10 UNL     1     -12.367  31.066  -0.971  0.00  0.00    +0.000 A 
ATOM      6  C11 UNL     1     -12.186  31.487  -2.327  0.00  0.00    +0.000 A 
ATOM      7  C12 UNL     1     -11.113  32.327  -2.650  0.00  0.00    +0.000 A 
ATOM      8  C13 UNL     1     -10.214  32.761  -1.674  0.00  0.00    +0.000 A 
ATOM      9  C14 UNL     1     -10.381  32.357  -0.352  0.00  0.00    +0.000 A 
ATOM     10  C15 UNL     1     -11.440  31.520   0.005  0.00  0.00    +0.000 A 
ATOM     11  O2  UNL     1     -11.557  31.162   1.279  0.00  0.00    +0.000 OA
ENDROOT
BRANCH   1  17
ATOM     12  C1  UNL     1     -13.621  29.423   3.843  0.00  0.00    +0.000 A 
ATOM     13  C2  UNL     1     -13.580  29.143   5.213  0.00  0.00    +0.000 A 
ATOM     14  C3  UNL     1     -12.454  29.482   5.970  0.00  0.00    +0.000 A 
ATOM     15  C4  UNL     1     -11.368  30.101   5.351  0.00  0.00    +0.000 A 
ATOM     16  C5  UNL     1     -11.402  30.383   3.983  0.00  0.00    +0.000 A 
ATOM     17  C6  UNL     1     -12.529  30.049   3.202  0.00  0.00    +0.000 A 
BRANCH  14  18
ATOM     18  O5  UNL     1     -12.404  29.208   7.335  0.00  0.00    +0.000 OA
ATOM     19  H10 UNL     1     -11.887  29.799   7.975  0.00  0.00    +0.000 HD
ENDBRANCH  14  18
ENDBRANCH   1  17
BRANCH   8  20
ATOM     20  O3  UNL     1      -9.151  33.596  -2.009  0.00  0.00    +0.000 OA
ATOM     21  H8  UNL     1      -9.298  34.562  -2.276  0.00  0.00    +0.000 HD
ENDBRANCH   8  20
BRANCH   6  22
ATOM     22  O4  UNL     1     -13.017  31.120  -3.391  0.00  0.00    +0.000 OA
ATOM     23  H9  UNL     1     -13.502  30.244  -3.496  0.00  0.00    +0.000 HD
ENDBRANCH   6  22
TORSDOF 4
ENDMDL
MODEL 4
REMARK VINA RESULT:      -5.3      2.408      7.720
REMARK  Name = .\Apigenin.pdb
REMARK  4 active torsions:
REMARK  status: ('A' for Active; 'I' for Inactive)
REMARK    1  A    between atoms: C3_3  and  O5_20
REMARK    2  A    between atoms: C6_6  and  C7_7
REMARK    3  A    between atoms: C11_12  and  O4_19
REMARK    4  A    between atoms: C13_14  and  O3_18
REMARK                            x       y       z     vdW  Elec       q    Type
REMARK                         _______ _______ _______ _____ _____    ______ ____
ROOT
ATOM      1  C7  UNL     1     -11.269  30.765   3.498  0.00  0.00    +0.000 A 
ATOM      2  C8  UNL     1     -12.399  30.161   4.072  0.00  0.00    +0.000 A 
ATOM      3  C9  UNL     1     -12.356  29.720   5.396  0.00  0.00    +0.000 A 
ATOM      4  O1  UNL     1     -13.389  29.184   5.870  0.00  0.00    +0.000 OA
ATOM      5  C10 UNL     1     -11.173  29.883   6.157  0.00  0.00    +0.000 A 
ATOM      6  C11 UNL     1     -11.006  29.474   7.519  0.00  0.00    +0.000 A 
ATOM      7  C12 UNL     1      -9.781  29.694   8.159  0.00  0.00    +0.000 A 
ATOM      8  C13 UNL     1      -8.716  30.307   7.494  0.00  0.00    +0.000 A 
ATOM      9  C14 UNL     1      -8.868  30.709   6.170  0.00  0.00    +0.000 A 
ATOM     10  C15 UNL     1     -10.077  30.504   5.502  0.00  0.00    +0.000 A 
ATOM     11  O2  UNL     1     -10.174  30.904   4.239  0.00  0.00    +0.000 OA
ENDROOT
BRANCH   1  17
ATOM     12  C1  UNL     1     -10.273  32.190   1.625  0.00  0.00    +0.000 A 
ATOM     13  C2  UNL     1     -10.284  32.626   0.296  0.00  0.00    +0.000 A 
ATOM     14  C3  UNL     1     -11.251  32.151  -0.596  0.00  0.00    +0.000 A 
ATOM     15  C4  UNL     1     -12.207  31.237  -0.153  0.00  0.00    +0.000 A 
ATOM     16  C5  UNL     1     -12.202  30.797   1.173  0.00  0.00    +0.000 A 
ATOM     17  C6  UNL     1     -11.235  31.264   2.088  0.00  0.00    +0.000 A 
BRANCH  14  18
ATOM     18  O5  UNL     1     -11.270  32.580  -1.921  0.00  0.00    +0.000 OA
ATOM     19  H10 UNL     1     -11.096  31.940  -2.688  0.00  0.00    +0.000 HD
ENDBRANCH  14  18
ENDBRANCH   1  17
BRANCH   8  20
ATOM     20  O3  UNL     1      -7.502  30.521   8.143  0.00  0.00    +0.000 OA
ATOM     21  H8  UNL     1      -6.860  31.245   7.843  0.00  0.00    +0.000 HD
ENDBRANCH   8  20
BRANCH   6  22
ATOM     22  O4  UNL     1     -11.995  28.852   8.289  0.00  0.00    +0.000 OA
ATOM     23  H9  UNL     1     -12.656  29.308   8.894  0.00  0.00    +0.000 HD
ENDBRANCH   6  22
TORSDOF 4
ENDMDL
MODEL 5
REMARK VINA RESULT:      -5.2      2.064      7.602
REMARK  Name = .\Apigenin.pdb
REMARK  4 active torsions:
REMARK  status: ('A' for Active; 'I' for Inactive)
REMARK    1  A    between atoms: C3_3  and  O5_20
REMARK    2  A    between atoms: C6_6  and  C7_7
REMARK    3  A    between atoms: C11_12  and  O4_19
REMARK    4  A    between atoms: C13_14  and  O3_18
REMARK                            x       y       z     vdW  Elec       q    Type
REMARK                         _______ _______ _______ _____ _____    ______ ____
ROOT
ATOM      1  C7  UNL     1     -11.463  30.769   3.181  0.00  0.00    +0.000 A 
ATOM      2  C8  UNL     1     -12.620  30.071   3.563  0.00  0.00    +0.000 A 
ATOM      3  C9  UNL     1     -12.734  29.569   4.860  0.00  0.00    +0.000 A 
ATOM      4  O1  UNL     1     -13.785  28.949   5.160  0.00  0.00    +0.000 OA
ATOM      5  C10 UNL     1     -11.682  29.763   5.789  0.00  0.00    +0.000 A 
ATOM      6  C11 UNL     1     -11.681  29.297   7.142  0.00  0.00    +0.000 A 
ATOM      7  C12 UNL     1     -10.574  29.558   7.959  0.00  0.00    +0.000 A 
ATOM      8  C13 UNL     1      -9.470  30.266   7.478  0.00  0.00    +0.000 A 
ATOM      9  C14 UNL     1      -9.461  30.723   6.164  0.00  0.00    +0.000 A 
ATOM     10  C15 UNL     1     -10.548  30.480   5.322  0.00  0.00    +0.000 A 
ATOM     11  O2  UNL     1     -10.494  30.936   4.075  0.00  0.00    +0.000 OA
ENDROOT
BRANCH   1  17
ATOM     12  C1  UNL     1     -12.068  30.975   0.707  0.00  0.00    +0.000 A 
ATOM     13  C2  UNL     1     -11.843  31.536  -0.554  0.00  0.00    +0.000 A 
ATOM     14  C3  UNL     1     -10.817  32.468  -0.740  0.00  0.00    +0.000 A 
ATOM     15  C4  UNL     1     -10.016  32.837   0.341  0.00  0.00    +0.000 A 
ATOM     16  C5  UNL     1     -10.235  32.280   1.604  0.00  0.00    +0.000 A 
ATOM     17  C6  UNL     1     -11.266  31.339   1.812  0.00  0.00    +0.000 A 
BRANCH  14  18
ATOM     18  O5  UNL     1     -10.584  33.032  -1.992  0.00  0.00    +0.000 OA
ATOM     19  H10 UNL     1     -10.291  33.997  -2.093  0.00  0.00    +0.000 HD
ENDBRANCH  14  18
ENDBRANCH   1  17
BRANCH   8  20
ATOM     20  O3  UNL     1      -8.375  30.519   8.301  0.00  0.00    +0.000 OA
ATOM     21  H8  UNL     1      -7.427  30.508   7.943  0.00  0.00    +0.000 HD
ENDBRANCH   8  20
BRANCH   6  22
ATOM     22  O4  UNL     1     -12.724  28.580   7.738  0.00  0.00    +0.000 OA
ATOM     23  H9  UNL     1     -13.188  27.773   7.357  0.00  0.00    +0.000 HD
ENDBRANCH   6  22
TORSDOF 4
ENDMDL
MODEL 6
REMARK VINA RESULT:      -5.1      1.585      3.301
REMARK  Name = .\Apigenin.pdb
REMARK  4 active torsions:
REMARK  status: ('A' for Active; 'I' for Inactive)
REMARK    1  A    between atoms: C3_3  and  O5_20
REMARK    2  A    between atoms: C6_6  and  C7_7
REMARK    3  A    between atoms: C11_12  and  O4_19
REMARK    4  A    between atoms: C13_14  and  O3_18
REMARK                            x       y       z     vdW  Elec       q    Type
REMARK                         _______ _______ _______ _____ _____    ______ ____
ROOT
ATOM      1  C7  UNL     1     -11.813  30.384   3.112  0.00  0.00    +0.000 A 
ATOM      2  C8  UNL     1     -12.922  29.787   2.493  0.00  0.00    +0.000 A 
ATOM      3  C9  UNL     1     -13.176  30.025   1.141  0.00  0.00    +0.000 A 
ATOM      4  O1  UNL     1     -14.179  29.471   0.625  0.00  0.00    +0.000 OA
ATOM      5  C10 UNL     1     -12.316  30.869   0.398  0.00  0.00    +0.000 A 
ATOM      6  C11 UNL     1     -12.471  31.189  -0.989  0.00  0.00    +0.000 A 
ATOM      7  C12 UNL     1     -11.547  32.041  -1.607  0.00  0.00    +0.000 A 
ATOM      8  C13 UNL     1     -10.474  32.584  -0.896  0.00  0.00    +0.000 A 
ATOM      9  C14 UNL     1     -10.315  32.279   0.453  0.00  0.00    +0.000 A 
ATOM     10  C15 UNL     1     -11.218  31.434   1.100  0.00  0.00    +0.000 A 
ATOM     11  O2  UNL     1     -11.024  31.172   2.388  0.00  0.00    +0.000 OA
ENDROOT
BRANCH   1  17
ATOM     12  C1  UNL     1     -10.250  30.605   5.122  0.00  0.00    +0.000 A 
ATOM     13  C2  UNL     1      -9.979  30.388   6.477  0.00  0.00    +0.000 A 
ATOM     14  C3  UNL     1     -10.916  29.745   7.292  0.00  0.00    +0.000 A 
ATOM     15  C4  UNL     1     -12.127  29.318   6.745  0.00  0.00    +0.000 A 
ATOM     16  C5  UNL     1     -12.404  29.531   5.393  0.00  0.00    +0.000 A 
ATOM     17  C6  UNL     1     -11.472  30.179   4.555  0.00  0.00    +0.000 A 
BRANCH  14  18
ATOM     18  O5  UNL     1     -10.654  29.525   8.642  0.00  0.00    +0.000 OA
ATOM     19  H10 UNL     1     -11.218  29.952   9.368  0.00  0.00    +0.000 HD
ENDBRANCH  14  18
ENDBRANCH   1  17
BRANCH   8  20
ATOM     20  O3  UNL     1      -9.562  33.429  -1.523  0.00  0.00    +0.000 OA
ATOM     21  H8  UNL     1      -9.859  34.273  -1.997  0.00  0.00    +0.000 HD
ENDBRANCH   8  20
BRANCH   6  22
ATOM     22  O4  UNL     1     -13.501  30.709  -1.806  0.00  0.00    +0.000 OA
ATOM     23  H9  UNL     1     -14.388  30.348  -1.498  0.00  0.00    +0.000 HD
ENDBRANCH   6  22
TORSDOF 4
ENDMDL
MODEL 7
REMARK VINA RESULT:      -5.0      1.919      7.280
REMARK  Name = .\Apigenin.pdb
REMARK  4 active torsions:
REMARK  status: ('A' for Active; 'I' for Inactive)
REMARK    1  A    between atoms: C3_3  and  O5_20
REMARK    2  A    between atoms: C6_6  and  C7_7
REMARK    3  A    between atoms: C11_12  and  O4_19
REMARK    4  A    between atoms: C13_14  and  O3_18
REMARK                            x       y       z     vdW  Elec       q    Type
REMARK                         _______ _______ _______ _____ _____    ______ ____
ROOT
ATOM      1  C7  UNL     1     -11.267  30.735   3.503  0.00  0.00    +0.000 A 
ATOM      2  C8  UNL     1     -10.127  30.792   4.321  0.00  0.00    +0.000 A 
ATOM      3  C9  UNL     1     -10.189  30.320   5.633  0.00  0.00    +0.000 A 
ATOM      4  O1  UNL     1      -9.146  30.391   6.332  0.00  0.00    +0.000 OA
ATOM      5  C10 UNL     1     -11.400  29.787   6.137  0.00  0.00    +0.000 A 
ATOM      6  C11 UNL     1     -11.587  29.275   7.461  0.00  0.00    +0.000 A 
ATOM      7  C12 UNL     1     -12.840  28.774   7.834  0.00  0.00    +0.000 A 
ATOM      8  C13 UNL     1     -13.912  28.763   6.939  0.00  0.00    +0.000 A 
ATOM      9  C14 UNL     1     -13.740  29.259   5.650  0.00  0.00    +0.000 A 
ATOM     10  C15 UNL     1     -12.504  29.766   5.245  0.00  0.00    +0.000 A 
ATOM     11  O2  UNL     1     -12.389  30.228   4.004  0.00  0.00    +0.000 OA
ENDROOT
BRANCH   1  17
ATOM     12  C1  UNL     1     -12.234  30.782   1.138  0.00  0.00    +0.000 A 
ATOM     13  C2  UNL     1     -12.206  31.264  -0.175  0.00  0.00    +0.000 A 
ATOM     14  C3  UNL     1     -11.232  32.187  -0.568  0.00  0.00    +0.000 A 
ATOM     15  C4  UNL     1     -10.285  32.627   0.357  0.00  0.00    +0.000 A 
ATOM     16  C5  UNL     1     -10.307  32.149   1.670  0.00  0.00    +0.000 A 
ATOM     17  C6  UNL     1     -11.282  31.218   2.087  0.00  0.00    +0.000 A 
BRANCH  14  18
ATOM     18  O5  UNL     1     -11.196  32.672  -1.873  0.00  0.00    +0.000 OA
ATOM     19  H10 UNL     1     -10.411  32.484  -2.487  0.00  0.00    +0.000 HD
ENDBRANCH  14  18
ENDBRANCH   1  17
BRANCH   8  20
ATOM     20  O3  UNL     1     -15.153  28.261   7.323  0.00  0.00    +0.000 OA
ATOM     21  H8  UNL     1     -15.820  27.915   6.643  0.00  0.00    +0.000 HD
ENDBRANCH   8  20
BRANCH   6  22
ATOM     22  O4  UNL     1     -10.593  29.231   8.445  0.00  0.00    +0.000 OA
ATOM     23  H9  UNL     1     -10.617  29.694   9.338  0.00  0.00    +0.000 HD
ENDBRANCH   6  22
TORSDOF 4
ENDMDL
MODEL 8
REMARK VINA RESULT:      -4.7      1.520      6.672
REMARK  Name = .\Apigenin.pdb
REMARK  4 active torsions:
REMARK  status: ('A' for Active; 'I' for Inactive)
REMARK    1  A    between atoms: C3_3  and  O5_20
REMARK    2  A    between atoms: C6_6  and  C7_7
REMARK    3  A    between atoms: C11_12  and  O4_19
REMARK    4  A    between atoms: C13_14  and  O3_18
REMARK                            x       y       z     vdW  Elec       q    Type
REMARK                         _______ _______ _______ _____ _____    ______ ____
ROOT
ATOM      1  C7  UNL     1     -11.678  31.267   0.833  0.00  0.00    +0.000 A 
ATOM      2  C8  UNL     1     -10.571  31.721   1.568  0.00  0.00    +0.000 A 
ATOM      3  C9  UNL     1     -10.445  31.383   2.917  0.00  0.00    +0.000 A 
ATOM      4  O1  UNL     1      -9.440  31.810   3.538  0.00  0.00    +0.000 OA
ATOM      5  C10 UNL     1     -11.435  30.585   3.541  0.00  0.00    +0.000 A 
ATOM      6  C11 UNL     1     -11.419  30.174   4.913  0.00  0.00    +0.000 A 
ATOM      7  C12 UNL     1     -12.463  29.383   5.407  0.00  0.00    +0.000 A 
ATOM      8  C13 UNL     1     -13.521  28.985   4.587  0.00  0.00    +0.000 A 
ATOM      9  C14 UNL     1     -13.546  29.380   3.252  0.00  0.00    +0.000 A 
ATOM     10  C15 UNL     1     -12.521  30.169   2.727  0.00  0.00    +0.000 A 
ATOM     11  O2  UNL     1     -12.590  30.520   1.447  0.00  0.00    +0.000 OA
ENDROOT
BRANCH   1  17
ATOM     12  C1  UNL     1     -10.839  32.020  -1.461  0.00  0.00    +0.000 A 
ATOM     13  C2  UNL     1     -11.083  32.304  -2.808  0.00  0.00    +0.000 A 
ATOM     14  C3  UNL     1     -12.370  32.161  -3.339  0.00  0.00    +0.000 A 
ATOM     15  C4  UNL     1     -13.411  31.733  -2.516  0.00  0.00    +0.000 A 
ATOM     16  C5  UNL     1     -13.174  31.447  -1.169  0.00  0.00    +0.000 A 
ATOM     17  C6  UNL     1     -11.884  31.584  -0.615  0.00  0.00    +0.000 A 
BRANCH  14  18
ATOM     18  O5  UNL     1     -12.622  32.442  -4.679  0.00  0.00    +0.000 OA
ATOM     19  H10 UNL     1     -12.338  31.808  -5.417  0.00  0.00    +0.000 HD
ENDBRANCH  14  18
ENDBRANCH   1  17
BRANCH   8  20
ATOM     20  O3  UNL     1     -14.553  28.198   5.091  0.00  0.00    +0.000 OA
ATOM     21  H8  UNL     1     -14.391  27.512   5.818  0.00  0.00    +0.000 HD
ENDBRANCH   8  20
BRANCH   6  22
ATOM     22  O4  UNL     1     -10.416  30.507   5.830  0.00  0.00    +0.000 OA
ATOM     23  H9  UNL     1     -10.454  30.381   6.828  0.00  0.00    +0.000 HD
ENDBRANCH   6  22
TORSDOF 4
ENDMDL
MODEL 9
REMARK VINA RESULT:      -4.7      1.738      7.186
REMARK  Name = .\Apigenin.pdb
REMARK  4 active torsions:
REMARK  status: ('A' for Active; 'I' for Inactive)
REMARK    1  A    between atoms: C3_3  and  O5_20
REMARK    2  A    between atoms: C6_6  and  C7_7
REMARK    3  A    between atoms: C11_12  and  O4_19
REMARK    4  A    between atoms: C13_14  and  O3_18
REMARK                            x       y       z     vdW  Elec       q    Type
REMARK                         _______ _______ _______ _____ _____    ______ ____
ROOT
ATOM      1  C7  UNL     1     -12.196  30.706   1.280  0.00  0.00    +0.000 A 
ATOM      2  C8  UNL     1     -13.225  29.850   1.703  0.00  0.00    +0.000 A 
ATOM      3  C9  UNL     1     -13.269  29.418   3.029  0.00  0.00    +0.000 A 
ATOM      4  O1  UNL     1     -14.207  28.651   3.367  0.00  0.00    +0.000 OA
ATOM      5  C10 UNL     1     -12.276  29.842   3.945  0.00  0.00    +0.000 A 
ATOM      6  C11 UNL     1     -12.214  29.468   5.326  0.00  0.00    +0.000 A 
ATOM      7  C12 UNL     1     -11.175  29.961   6.126  0.00  0.00    +0.000 A 
ATOM      8  C13 UNL     1     -10.199  30.811   5.603  0.00  0.00    +0.000 A 
ATOM      9  C14 UNL     1     -10.250  31.180   4.262  0.00  0.00    +0.000 A 
ATOM     10  C15 UNL     1     -11.272  30.707   3.436  0.00  0.00    +0.000 A 
ATOM     11  O2  UNL     1     -11.279  31.087   2.163  0.00  0.00    +0.000 OA
ENDROOT
BRANCH   1  17
ATOM     12  C1  UNL     1     -10.918  31.851  -0.614  0.00  0.00    +0.000 A 
ATOM     13  C2  UNL     1     -10.858  32.308  -1.934  0.00  0.00    +0.000 A 
ATOM     14  C3  UNL     1     -11.952  32.142  -2.790  0.00  0.00    +0.000 A 
ATOM     15  C4  UNL     1     -13.106  31.515  -2.319  0.00  0.00    +0.000 A 
ATOM     16  C5  UNL     1     -13.172  31.056  -1.001  0.00  0.00    +0.000 A 
ATOM     17  C6  UNL     1     -12.080  31.214  -0.123  0.00  0.00    +0.000 A 
BRANCH  14  18
ATOM     18  O5  UNL     1     -11.902  32.595  -4.106  0.00  0.00    +0.000 OA
ATOM     19  H10 UNL     1     -12.456  32.163  -4.836  0.00  0.00    +0.000 HD
ENDBRANCH  14  18
ENDBRANCH   1  17
BRANCH   8  20
ATOM     20  O3  UNL     1      -9.171  31.293   6.410  0.00  0.00    +0.000 OA
ATOM     21  H8  UNL     1      -9.021  32.286   6.542  0.00  0.00    +0.000 HD
ENDBRANCH   8  20
BRANCH   6  22
ATOM     22  O4  UNL     1     -13.131  28.626   5.964  0.00  0.00    +0.000 OA
ATOM     23  H9  UNL     1     -14.025  28.893   6.341  0.00  0.00    +0.000 HD
ENDBRANCH   6  22
TORSDOF 4
ENDMDL
