MODEL 1
REMARK VINA RESULT:      -9.0      0.000      0.000
REMARK  Name = .\Apigenin.pdb
REMARK  4 active torsions:
REMARK  status: ('A' for Active; 'I' for Inactive)
REMARK    1  A    between atoms: C3_3  and  O5_20
REMARK    2  A    between atoms: C6_6  and  C7_7
REMARK    3  A    between atoms: C11_12  and  O4_19
REMARK    4  A    between atoms: C13_14  and  O3_18
REMARK                            x       y       z     vdW  Elec       q    Type
REMARK                         _______ _______ _______ _____ _____    ______ ____
ROOT
ATOM      1  C7  UNL     1     -13.142  52.084   8.566  0.00  0.00    +0.000 A 
ATOM      2  C8  UNL     1     -13.955  52.931   9.336  0.00  0.00    +0.000 A 
ATOM      3  C9  UNL     1     -14.689  53.943   8.716  0.00  0.00    +0.000 A 
ATOM      4  O1  UNL     1     -15.403  54.680   9.442  0.00  0.00    +0.000 OA
ATOM      5  C10 UNL     1     -14.613  54.115   7.313  0.00  0.00    +0.000 A 
ATOM      6  C11 UNL     1     -15.315  55.113   6.564  0.00  0.00    +0.000 A 
ATOM      7  C12 UNL     1     -15.151  55.175   5.175  0.00  0.00    +0.000 A 
ATOM      8  C13 UNL     1     -14.315  54.279   4.504  0.00  0.00    +0.000 A 
ATOM      9  C14 UNL     1     -13.628  53.306   5.222  0.00  0.00    +0.000 A 
ATOM     10  C15 UNL     1     -13.768  53.216   6.609  0.00  0.00    +0.000 A 
ATOM     11  O2  UNL     1     -13.092  52.270   7.250  0.00  0.00    +0.000 OA
ENDROOT
BRANCH   1  17
ATOM     12  C1  UNL     1     -12.453  50.560  10.498  0.00  0.00    +0.000 A 
ATOM     13  C2  UNL     1     -11.666  49.519  11.001  0.00  0.00    +0.000 A 
ATOM     14  C3  UNL     1     -10.740  48.873  10.176  0.00  0.00    +0.000 A 
ATOM     15  C4  UNL     1     -10.602  49.272   8.847  0.00  0.00    +0.000 A 
ATOM     16  C5  UNL     1     -11.385  50.312   8.339  0.00  0.00    +0.000 A 
ATOM     17  C6  UNL     1     -12.326  50.976   9.154  0.00  0.00    +0.000 A 
BRANCH  14  18
ATOM     18  O5  UNL     1      -9.951  47.835  10.668  0.00  0.00    +0.000 OA
ATOM     19  H10 UNL     1      -9.668  47.060  10.080  0.00  0.00    +0.000 HD
ENDBRANCH  14  18
ENDBRANCH   1  17
BRANCH   8  20
ATOM     20  O3  UNL     1     -14.161  54.351   3.121  0.00  0.00    +0.000 OA
ATOM     21  H8  UNL     1     -14.136  53.518   2.546  0.00  0.00    +0.000 HD
ENDBRANCH   8  20
BRANCH   6  22
ATOM     22  O4  UNL     1     -16.179  56.063   7.121  0.00  0.00    +0.000 OA
ATOM     23  H9  UNL     1     -16.726  56.740   6.617  0.00  0.00    +0.000 HD
ENDBRANCH   6  22
TORSDOF 4
ENDMDL
MODEL 2
REMARK VINA RESULT:      -8.0      3.219      6.005
REMARK  Name = .\Apigenin.pdb
REMARK  4 active torsions:
REMARK  status: ('A' for Active; 'I' for Inactive)
REMARK    1  A    between atoms: C3_3  and  O5_20
REMARK    2  A    between atoms: C6_6  and  C7_7
REMARK    3  A    between atoms: C11_12  and  O4_19
REMARK    4  A    between atoms: C13_14  and  O3_18
REMARK                            x       y       z     vdW  Elec       q    Type
REMARK                         _______ _______ _______ _____ _____    ______ ____
ROOT
ATOM      1  C7  UNL     1     -11.409  49.165  12.321  0.00  0.00    +0.000 A 
ATOM      2  C8  UNL     1     -10.633  48.761  11.224  0.00  0.00    +0.000 A 
ATOM      3  C9  UNL     1     -10.925  49.247   9.948  0.00  0.00    +0.000 A 
ATOM      4  O1  UNL     1     -10.205  48.859   8.993  0.00  0.00    +0.000 OA
ATOM      5  C10 UNL     1     -12.004  50.144   9.763  0.00  0.00    +0.000 A 
ATOM      6  C11 UNL     1     -12.401  50.709   8.509  0.00  0.00    +0.000 A 
ATOM      7  C12 UNL     1     -13.491  51.588   8.464  0.00  0.00    +0.000 A 
ATOM      8  C13 UNL     1     -14.198  51.925   9.620  0.00  0.00    +0.000 A 
ATOM      9  C14 UNL     1     -13.819  51.381  10.844  0.00  0.00    +0.000 A 
ATOM     10  C15 UNL     1     -12.738  50.501  10.925  0.00  0.00    +0.000 A 
ATOM     11  O2  UNL     1     -12.415  50.009  12.116  0.00  0.00    +0.000 OA
ENDROOT
BRANCH   1  17
ATOM     12  C1  UNL     1     -11.569  47.420  14.182  0.00  0.00    +0.000 A 
ATOM     13  C2  UNL     1     -11.312  47.023  15.498  0.00  0.00    +0.000 A 
ATOM     14  C3  UNL     1     -10.645  47.882  16.378  0.00  0.00    +0.000 A 
ATOM     15  C4  UNL     1     -10.236  49.140  15.935  0.00  0.00    +0.000 A 
ATOM     16  C5  UNL     1     -10.489  49.543  14.621  0.00  0.00    +0.000 A 
ATOM     17  C6  UNL     1     -11.160  48.690  13.719  0.00  0.00    +0.000 A 
BRANCH  14  18
ATOM     18  O5  UNL     1     -10.386  47.496  17.691  0.00  0.00    +0.000 OA
ATOM     19  H10 UNL     1      -9.684  47.964  18.252  0.00  0.00    +0.000 HD
ENDBRANCH  14  18
ENDBRANCH   1  17
BRANCH   8  20
ATOM     20  O3  UNL     1     -15.279  52.800   9.561  0.00  0.00    +0.000 OA
ATOM     21  H8  UNL     1     -15.194  53.770   9.843  0.00  0.00    +0.000 HD
ENDBRANCH   8  20
BRANCH   6  22
ATOM     22  O4  UNL     1     -11.774  50.449   7.286  0.00  0.00    +0.000 OA
ATOM     23  H9  UNL     1     -12.182  50.549   6.372  0.00  0.00    +0.000 HD
ENDBRANCH   6  22
TORSDOF 4
ENDMDL
MODEL 3
REMARK VINA RESULT:      -8.0      4.201      9.440
REMARK  Name = .\Apigenin.pdb
REMARK  4 active torsions:
REMARK  status: ('A' for Active; 'I' for Inactive)
REMARK    1  A    between atoms: C3_3  and  O5_20
REMARK    2  A    between atoms: C6_6  and  C7_7
REMARK    3  A    between atoms: C11_12  and  O4_19
REMARK    4  A    between atoms: C13_14  and  O3_18
REMARK                            x       y       z     vdW  Elec       q    Type
REMARK                         _______ _______ _______ _____ _____    ______ ____
ROOT
ATOM      1  C7  UNL     1     -11.328  48.999  12.642  0.00  0.00    +0.000 A 
ATOM      2  C8  UNL     1     -10.281  49.484  13.441  0.00  0.00    +0.000 A 
ATOM      3  C9  UNL     1     -10.125  49.010  14.745  0.00  0.00    +0.000 A 
ATOM      4  O1  UNL     1      -9.175  49.471  15.428  0.00  0.00    +0.000 OA
ATOM      5  C10 UNL     1     -11.023  48.045  15.260  0.00  0.00    +0.000 A 
ATOM      6  C11 UNL     1     -10.968  47.485  16.576  0.00  0.00    +0.000 A 
ATOM      7  C12 UNL     1     -11.921  46.534  16.961  0.00  0.00    +0.000 A 
ATOM      8  C13 UNL     1     -12.925  46.119  16.084  0.00  0.00    +0.000 A 
ATOM      9  C14 UNL     1     -12.988  46.658  14.802  0.00  0.00    +0.000 A 
ATOM     10  C15 UNL     1     -12.054  47.608  14.386  0.00  0.00    +0.000 A 
ATOM     11  O2  UNL     1     -12.155  48.093  13.153  0.00  0.00    +0.000 OA
ENDROOT
BRANCH   1  17
ATOM     12  C1  UNL     1     -12.735  50.131  10.834  0.00  0.00    +0.000 A 
ATOM     13  C2  UNL     1     -12.906  50.537   9.506  0.00  0.00    +0.000 A 
ATOM     14  C3  UNL     1     -11.915  50.276   8.554  0.00  0.00    +0.000 A 
ATOM     15  C4  UNL     1     -10.751  49.608   8.936  0.00  0.00    +0.000 A 
ATOM     16  C5  UNL     1     -10.574  49.201  10.261  0.00  0.00    +0.000 A 
ATOM     17  C6  UNL     1     -11.562  49.455  11.236  0.00  0.00    +0.000 A 
BRANCH  14  18
ATOM     18  O5  UNL     1     -12.077  50.675   7.230  0.00  0.00    +0.000 OA
ATOM     19  H10 UNL     1     -11.377  50.471   6.526  0.00  0.00    +0.000 HD
ENDBRANCH  14  18
ENDBRANCH   1  17
BRANCH   8  20
ATOM     20  O3  UNL     1     -13.867  45.172  16.479  0.00  0.00    +0.000 OA
ATOM     21  H8  UNL     1     -14.559  44.810  15.834  0.00  0.00    +0.000 HD
ENDBRANCH   8  20
BRANCH   6  22
ATOM     22  O4  UNL     1     -10.012  47.818  17.542  0.00  0.00    +0.000 OA
ATOM     23  H9  UNL     1      -9.044  48.037  17.375  0.00  0.00    +0.000 HD
ENDBRANCH   6  22
TORSDOF 4
ENDMDL
MODEL 4
REMARK VINA RESULT:      -7.9      1.441      3.114
REMARK  Name = .\Apigenin.pdb
REMARK  4 active torsions:
REMARK  status: ('A' for Active; 'I' for Inactive)
REMARK    1  A    between atoms: C3_3  and  O5_20
REMARK    2  A    between atoms: C6_6  and  C7_7
REMARK    3  A    between atoms: C11_12  and  O4_19
REMARK    4  A    between atoms: C13_14  and  O3_18
REMARK                            x       y       z     vdW  Elec       q    Type
REMARK                         _______ _______ _______ _____ _____    ______ ____
ROOT
ATOM      1  C7  UNL     1     -12.913  52.210   8.793  0.00  0.00    +0.000 A 
ATOM      2  C8  UNL     1     -12.904  52.578   7.438  0.00  0.00    +0.000 A 
ATOM      3  C9  UNL     1     -13.639  53.685   7.012  0.00  0.00    +0.000 A 
ATOM      4  O1  UNL     1     -13.604  53.980   5.791  0.00  0.00    +0.000 OA
ATOM      5  C10 UNL     1     -14.396  54.434   7.946  0.00  0.00    +0.000 A 
ATOM      6  C11 UNL     1     -15.188  55.584   7.633  0.00  0.00    +0.000 A 
ATOM      7  C12 UNL     1     -15.890  56.236   8.654  0.00  0.00    +0.000 A 
ATOM      8  C13 UNL     1     -15.831  55.786   9.975  0.00  0.00    +0.000 A 
ATOM      9  C14 UNL     1     -15.063  54.668  10.290  0.00  0.00    +0.000 A 
ATOM     10  C15 UNL     1     -14.351  53.994   9.296  0.00  0.00    +0.000 A 
ATOM     11  O2  UNL     1     -13.633  52.933   9.646  0.00  0.00    +0.000 OA
ENDROOT
BRANCH   1  17
ATOM     12  C1  UNL     1     -12.242  50.615  10.673  0.00  0.00    +0.000 A 
ATOM     13  C2  UNL     1     -11.508  49.513  11.125  0.00  0.00    +0.000 A 
ATOM     14  C3  UNL     1     -10.671  48.814  10.250  0.00  0.00    +0.000 A 
ATOM     15  C4  UNL     1     -10.571  49.221   8.919  0.00  0.00    +0.000 A 
ATOM     16  C5  UNL     1     -11.301  50.321   8.461  0.00  0.00    +0.000 A 
ATOM     17  C6  UNL     1     -12.151  51.039   9.328  0.00  0.00    +0.000 A 
BRANCH  14  18
ATOM     18  O5  UNL     1      -9.936  47.716  10.691  0.00  0.00    +0.000 OA
ATOM     19  H10 UNL     1      -9.274  47.795  11.454  0.00  0.00    +0.000 HD
ENDBRANCH  14  18
ENDBRANCH   1  17
BRANCH   8  20
ATOM     20  O3  UNL     1     -16.534  56.443  10.982  0.00  0.00    +0.000 OA
ATOM     21  H8  UNL     1     -16.897  57.380  10.851  0.00  0.00    +0.000 HD
ENDBRANCH   8  20
BRANCH   6  22
ATOM     22  O4  UNL     1     -15.326  56.129   6.352  0.00  0.00    +0.000 OA
ATOM     23  H9  UNL     1     -14.597  56.239   5.668  0.00  0.00    +0.000 HD
ENDBRANCH   6  22
TORSDOF 4
ENDMDL
MODEL 5
REMARK VINA RESULT:      -7.6      1.871      7.535
REMARK  Name = .\Apigenin.pdb
REMARK  4 active torsions:
REMARK  status: ('A' for Active; 'I' for Inactive)
REMARK    1  A    between atoms: C3_3  and  O5_20
REMARK    2  A    between atoms: C6_6  and  C7_7
REMARK    3  A    between atoms: C11_12  and  O4_19
REMARK    4  A    between atoms: C13_14  and  O3_18
REMARK                            x       y       z     vdW  Elec       q    Type
REMARK                         _______ _______ _______ _____ _____    ______ ____
ROOT
ATOM      1  C7  UNL     1     -12.358  51.857   9.098  0.00  0.00    +0.000 A 
ATOM      2  C8  UNL     1     -11.815  50.791   8.365  0.00  0.00    +0.000 A 
ATOM      3  C9  UNL     1     -11.131  49.769   9.026  0.00  0.00    +0.000 A 
ATOM      4  O1  UNL     1     -10.660  48.833   8.332  0.00  0.00    +0.000 OA
ATOM      5  C10 UNL     1     -10.985  49.811  10.434  0.00  0.00    +0.000 A 
ATOM      6  C11 UNL     1     -10.307  48.827  11.222  0.00  0.00    +0.000 A 
ATOM      7  C12 UNL     1     -10.235  48.988  12.611  0.00  0.00    +0.000 A 
ATOM      8  C13 UNL     1     -10.812  50.092  13.244  0.00  0.00    +0.000 A 
ATOM      9  C14 UNL     1     -11.473  51.054  12.486  0.00  0.00    +0.000 A 
ATOM     10  C15 UNL     1     -11.564  50.924  11.099  0.00  0.00    +0.000 A 
ATOM     11  O2  UNL     1     -12.205  51.869  10.418  0.00  0.00    +0.000 OA
ENDROOT
BRANCH   1  17
ATOM     12  C1  UNL     1     -13.189  54.274   9.046  0.00  0.00    +0.000 A 
ATOM     13  C2  UNL     1     -13.900  55.299   8.414  0.00  0.00    +0.000 A 
ATOM     14  C3  UNL     1     -14.541  55.065   7.193  0.00  0.00    +0.000 A 
ATOM     15  C4  UNL     1     -14.468  53.802   6.607  0.00  0.00    +0.000 A 
ATOM     16  C5  UNL     1     -13.759  52.773   7.233  0.00  0.00    +0.000 A 
ATOM     17  C6  UNL     1     -13.105  52.989   8.465  0.00  0.00    +0.000 A 
BRANCH  14  18
ATOM     18  O5  UNL     1     -15.252  56.080   6.557  0.00  0.00    +0.000 OA
ATOM     19  H10 UNL     1     -14.845  56.996   6.403  0.00  0.00    +0.000 HD
ENDBRANCH  14  18
ENDBRANCH   1  17
BRANCH   8  20
ATOM     20  O3  UNL     1     -10.733  50.240  14.626  0.00  0.00    +0.000 OA
ATOM     21  H8  UNL     1     -10.514  51.132  15.053  0.00  0.00    +0.000 HD
ENDBRANCH   8  20
BRANCH   6  22
ATOM     22  O4  UNL     1      -9.691  47.681  10.707  0.00  0.00    +0.000 OA
ATOM     23  H9  UNL     1     -10.061  46.746  10.722  0.00  0.00    +0.000 HD
ENDBRANCH   6  22
TORSDOF 4
ENDMDL
MODEL 6
REMARK VINA RESULT:      -7.5      1.673      3.489
REMARK  Name = .\Apigenin.pdb
REMARK  4 active torsions:
REMARK  status: ('A' for Active; 'I' for Inactive)
REMARK    1  A    between atoms: C3_3  and  O5_20
REMARK    2  A    between atoms: C6_6  and  C7_7
REMARK    3  A    between atoms: C11_12  and  O4_19
REMARK    4  A    between atoms: C13_14  and  O3_18
REMARK                            x       y       z     vdW  Elec       q    Type
REMARK                         _______ _______ _______ _____ _____    ______ ____
ROOT
ATOM      1  C7  UNL     1     -13.641  53.639   7.018  0.00  0.00    +0.000 A 
ATOM      2  C8  UNL     1     -13.676  53.333   5.648  0.00  0.00    +0.000 A 
ATOM      3  C9  UNL     1     -14.450  54.107   4.781  0.00  0.00    +0.000 A 
ATOM      4  O1  UNL     1     -14.454  53.799   3.563  0.00  0.00    +0.000 OA
ATOM      5  C10 UNL     1     -15.200  55.197   5.285  0.00  0.00    +0.000 A 
ATOM      6  C11 UNL     1     -16.028  56.061   4.500  0.00  0.00    +0.000 A 
ATOM      7  C12 UNL     1     -16.719  57.107   5.124  0.00  0.00    +0.000 A 
ATOM      8  C13 UNL     1     -16.614  57.325   6.500  0.00  0.00    +0.000 A 
ATOM      9  C14 UNL     1     -15.811  56.491   7.272  0.00  0.00    +0.000 A 
ATOM     10  C15 UNL     1     -15.109  55.438   6.682  0.00  0.00    +0.000 A 
ATOM     11  O2  UNL     1     -14.356  54.669   7.460  0.00  0.00    +0.000 OA
ENDROOT
BRANCH   1  17
ATOM     12  C1  UNL     1     -12.460  53.379   9.269  0.00  0.00    +0.000 A 
ATOM     13  C2  UNL     1     -11.707  52.610  10.162  0.00  0.00    +0.000 A 
ATOM     14  C3  UNL     1     -11.314  51.312   9.820  0.00  0.00    +0.000 A 
ATOM     15  C4  UNL     1     -11.678  50.786   8.580  0.00  0.00    +0.000 A 
ATOM     16  C5  UNL     1     -12.430  51.549   7.683  0.00  0.00    +0.000 A 
ATOM     17  C6  UNL     1     -12.837  52.860   8.010  0.00  0.00    +0.000 A 
BRANCH  14  18
ATOM     18  O5  UNL     1     -10.563  50.540  10.702  0.00  0.00    +0.000 OA
ATOM     19  H10 UNL     1      -9.576  50.716  10.853  0.00  0.00    +0.000 HD
ENDBRANCH  14  18
ENDBRANCH   1  17
BRANCH   8  20
ATOM     20  O3  UNL     1     -17.307  58.369   7.108  0.00  0.00    +0.000 OA
ATOM     21  H8  UNL     1     -17.672  58.287   8.049  0.00  0.00    +0.000 HD
ENDBRANCH   8  20
BRANCH   6  22
ATOM     22  O4  UNL     1     -16.213  55.945   3.118  0.00  0.00    +0.000 OA
ATOM     23  H9  UNL     1     -16.285  56.702   2.459  0.00  0.00    +0.000 HD
ENDBRANCH   6  22
TORSDOF 4
ENDMDL
MODEL 7
REMARK VINA RESULT:      -7.4      1.620      6.711
REMARK  Name = .\Apigenin.pdb
REMARK  4 active torsions:
REMARK  status: ('A' for Active; 'I' for Inactive)
REMARK    1  A    between atoms: C3_3  and  O5_20
REMARK    2  A    between atoms: C6_6  and  C7_7
REMARK    3  A    between atoms: C11_12  and  O4_19
REMARK    4  A    between atoms: C13_14  and  O3_18
REMARK                            x       y       z     vdW  Elec       q    Type
REMARK                         _______ _______ _______ _____ _____    ______ ____
ROOT
ATOM      1  C7  UNL     1     -14.170  52.919   7.917  0.00  0.00    +0.000 A 
ATOM      2  C8  UNL     1     -14.827  52.822   9.154  0.00  0.00    +0.000 A 
ATOM      3  C9  UNL     1     -14.382  51.904  10.108  0.00  0.00    +0.000 A 
ATOM      4  O1  UNL     1     -14.998  51.848  11.202  0.00  0.00    +0.000 OA
ATOM      5  C10 UNL     1     -13.271  51.073   9.825  0.00  0.00    +0.000 A 
ATOM      6  C11 UNL     1     -12.723  50.097  10.718  0.00  0.00    +0.000 A 
ATOM      7  C12 UNL     1     -11.618  49.338  10.314  0.00  0.00    +0.000 A 
ATOM      8  C13 UNL     1     -11.038  49.515   9.055  0.00  0.00    +0.000 A 
ATOM      9  C14 UNL     1     -11.563  50.462   8.181  0.00  0.00    +0.000 A 
ATOM     10  C15 UNL     1     -12.665  51.235   8.551  0.00  0.00    +0.000 A 
ATOM     11  O2  UNL     1     -13.130  52.126   7.682  0.00  0.00    +0.000 OA
ENDROOT
BRANCH   1  17
ATOM     12  C1  UNL     1     -14.402  53.613   5.469  0.00  0.00    +0.000 A 
ATOM     13  C2  UNL     1     -14.807  54.541   4.504  0.00  0.00    +0.000 A 
ATOM     14  C3  UNL     1     -15.399  55.748   4.889  0.00  0.00    +0.000 A 
ATOM     15  C4  UNL     1     -15.585  56.023   6.244  0.00  0.00    +0.000 A 
ATOM     16  C5  UNL     1     -15.184  55.100   7.213  0.00  0.00    +0.000 A 
ATOM     17  C6  UNL     1     -14.585  53.877   6.845  0.00  0.00    +0.000 A 
BRANCH  14  18
ATOM     18  O5  UNL     1     -15.804  56.679   3.935  0.00  0.00    +0.000 OA
ATOM     19  H10 UNL     1     -15.304  56.793   3.061  0.00  0.00    +0.000 HD
ENDBRANCH  14  18
ENDBRANCH   1  17
BRANCH   8  20
ATOM     20  O3  UNL     1      -9.939  48.754   8.666  0.00  0.00    +0.000 OA
ATOM     21  H8  UNL     1      -9.737  47.856   9.090  0.00  0.00    +0.000 HD
ENDBRANCH   8  20
BRANCH   6  22
ATOM     22  O4  UNL     1     -13.214  49.827  12.000  0.00  0.00    +0.000 OA
ATOM     23  H9  UNL     1     -14.078  49.364  12.224  0.00  0.00    +0.000 HD
ENDBRANCH   6  22
TORSDOF 4
ENDMDL
MODEL 8
REMARK VINA RESULT:      -7.3      2.261      7.069
REMARK  Name = .\Apigenin.pdb
REMARK  4 active torsions:
REMARK  status: ('A' for Active; 'I' for Inactive)
REMARK    1  A    between atoms: C3_3  and  O5_20
REMARK    2  A    between atoms: C6_6  and  C7_7
REMARK    3  A    between atoms: C11_12  and  O4_19
REMARK    4  A    between atoms: C13_14  and  O3_18
REMARK                            x       y       z     vdW  Elec       q    Type
REMARK                         _______ _______ _______ _____ _____    ______ ____
ROOT
ATOM      1  C7  UNL     1     -14.016  53.814   7.797  0.00  0.00    +0.000 A 
ATOM      2  C8  UNL     1     -12.667  53.969   8.152  0.00  0.00    +0.000 A 
ATOM      3  C9  UNL     1     -12.102  53.141   9.123  0.00  0.00    +0.000 A 
ATOM      4  O1  UNL     1     -10.891  53.313   9.412  0.00  0.00    +0.000 OA
ATOM      5  C10 UNL     1     -12.892  52.146   9.750  0.00  0.00    +0.000 A 
ATOM      6  C11 UNL     1     -12.430  51.239  10.757  0.00  0.00    +0.000 A 
ATOM      7  C12 UNL     1     -13.317  50.299  11.296  0.00  0.00    +0.000 A 
ATOM      8  C13 UNL     1     -14.645  50.229  10.871  0.00  0.00    +0.000 A 
ATOM      9  C14 UNL     1     -15.104  51.106   9.893  0.00  0.00    +0.000 A 
ATOM     10  C15 UNL     1     -14.247  52.056   9.334  0.00  0.00    +0.000 A 
ATOM     11  O2  UNL     1     -14.731  52.871   8.403  0.00  0.00    +0.000 OA
ENDROOT
BRANCH   1  17
ATOM     12  C1  UNL     1     -15.128  54.152   5.522  0.00  0.00    +0.000 A 
ATOM     13  C2  UNL     1     -15.757  54.985   4.590  0.00  0.00    +0.000 A 
ATOM     14  C3  UNL     1     -15.965  56.338   4.880  0.00  0.00    +0.000 A 
ATOM     15  C4  UNL     1     -15.540  56.854   6.104  0.00  0.00    +0.000 A 
ATOM     16  C5  UNL     1     -14.912  56.028   7.038  0.00  0.00    +0.000 A 
ATOM     17  C6  UNL     1     -14.693  54.661   6.766  0.00  0.00    +0.000 A 
BRANCH  14  18
ATOM     18  O5  UNL     1     -16.589  57.175   3.958  0.00  0.00    +0.000 OA
ATOM     19  H10 UNL     1     -17.595  57.302   3.954  0.00  0.00    +0.000 HD
ENDBRANCH  14  18
ENDBRANCH   1  17
BRANCH   8  20
ATOM     20  O3  UNL     1     -15.516  49.289  11.416  0.00  0.00    +0.000 OA
ATOM     21  H8  UNL     1     -15.475  48.311  11.155  0.00  0.00    +0.000 HD
ENDBRANCH   8  20
BRANCH   6  22
ATOM     22  O4  UNL     1     -11.126  51.211  11.264  0.00  0.00    +0.000 OA
ATOM     23  H9  UNL     1     -10.575  50.390  11.450  0.00  0.00    +0.000 HD
ENDBRANCH   6  22
TORSDOF 4
ENDMDL
MODEL 9
REMARK VINA RESULT:      -6.9      3.849      5.203
REMARK  Name = .\Apigenin.pdb
REMARK  4 active torsions:
REMARK  status: ('A' for Active; 'I' for Inactive)
REMARK    1  A    between atoms: C3_3  and  O5_20
REMARK    2  A    between atoms: C6_6  and  C7_7
REMARK    3  A    between atoms: C11_12  and  O4_19
REMARK    4  A    between atoms: C13_14  and  O3_18
REMARK                            x       y       z     vdW  Elec       q    Type
REMARK                         _______ _______ _______ _____ _____    ______ ____
ROOT
ATOM      1  C7  UNL     1     -14.987  50.949  10.478  0.00  0.00    +0.000 A 
ATOM      2  C8  UNL     1     -13.669  50.759  10.923  0.00  0.00    +0.000 A 
ATOM      3  C9  UNL     1     -12.675  51.671  10.566  0.00  0.00    +0.000 A 
ATOM      4  O1  UNL     1     -11.508  51.462  10.986  0.00  0.00    +0.000 OA
ATOM      5  C10 UNL     1     -12.996  52.785   9.754  0.00  0.00    +0.000 A 
ATOM      6  C11 UNL     1     -12.067  53.786   9.323  0.00  0.00    +0.000 A 
ATOM      7  C12 UNL     1     -12.516  54.841   8.519  0.00  0.00    +0.000 A 
ATOM      8  C13 UNL     1     -13.854  54.938   8.131  0.00  0.00    +0.000 A 
ATOM      9  C14 UNL     1     -14.765  53.970   8.546  0.00  0.00    +0.000 A 
ATOM     10  C15 UNL     1     -14.351  52.904   9.347  0.00  0.00    +0.000 A 
ATOM     11  O2  UNL     1     -15.257  52.006   9.717  0.00  0.00    +0.000 OA
ENDROOT
BRANCH   1  17
ATOM     12  C1  UNL     1     -16.621  49.070   9.904  0.00  0.00    +0.000 A 
ATOM     13  C2  UNL     1     -17.671  48.222  10.270  0.00  0.00    +0.000 A 
ATOM     14  C3  UNL     1     -18.231  48.302  11.550  0.00  0.00    +0.000 A 
ATOM     15  C4  UNL     1     -17.736  49.235  12.462  0.00  0.00    +0.000 A 
ATOM     16  C5  UNL     1     -16.687  50.084  12.103  0.00  0.00    +0.000 A 
ATOM     17  C6  UNL     1     -16.108  50.019  10.817  0.00  0.00    +0.000 A 
BRANCH  14  18
ATOM     18  O5  UNL     1     -19.278  47.463  11.923  0.00  0.00    +0.000 OA
ATOM     19  H10 UNL     1     -19.267  46.473  11.704  0.00  0.00    +0.000 HD
ENDBRANCH  14  18
ENDBRANCH   1  17
BRANCH   8  20
ATOM     20  O3  UNL     1     -14.288  55.993   7.332  0.00  0.00    +0.000 OA
ATOM     21  H8  UNL     1     -14.857  55.836   6.509  0.00  0.00    +0.000 HD
ENDBRANCH   8  20
BRANCH   6  22
ATOM     22  O4  UNL     1     -10.706  53.799   9.645  0.00  0.00    +0.000 OA
ATOM     23  H9  UNL     1     -10.240  53.191  10.297  0.00  0.00    +0.000 HD
ENDBRANCH   6  22
TORSDOF 4
ENDMDL
