MODEL 1
REMARK VINA RESULT:      -5.7      0.000      0.000
REMARK  Name = .\Apigenin.pdb
REMARK  4 active torsions:
REMARK  status: ('A' for Active; 'I' for Inactive)
REMARK    1  A    between atoms: C3_3  and  O5_20
REMARK    2  A    between atoms: C6_6  and  C7_7
REMARK    3  A    between atoms: C11_12  and  O4_19
REMARK    4  A    between atoms: C13_14  and  O3_18
REMARK                            x       y       z     vdW  Elec       q    Type
REMARK                         _______ _______ _______ _____ _____    ______ ____
ROOT
ATOM      1  C7  UNL     1       2.108  54.847 -23.669  0.00  0.00    +0.000 A 
ATOM      2  C8  UNL     1       2.929  55.608 -24.516  0.00  0.00    +0.000 A 
ATOM      3  C9  UNL     1       4.174  56.049 -24.065  0.00  0.00    +0.000 A 
ATOM      4  O1  UNL     1       4.878  56.728 -24.855  0.00  0.00    +0.000 OA
ATOM      5  C10 UNL     1       4.606  55.730 -22.755  0.00  0.00    +0.000 A 
ATOM      6  C11 UNL     1       5.857  56.123 -22.180  0.00  0.00    +0.000 A 
ATOM      7  C12 UNL     1       6.163  55.739 -20.869  0.00  0.00    +0.000 A 
ATOM      8  C13 UNL     1       5.271  54.978 -20.110  0.00  0.00    +0.000 A 
ATOM      9  C14 UNL     1       4.053  54.591 -20.660  0.00  0.00    +0.000 A 
ATOM     10  C15 UNL     1       3.716  54.956 -21.964  0.00  0.00    +0.000 A 
ATOM     11  O2  UNL     1       2.541  54.563 -22.445  0.00  0.00    +0.000 OA
ENDROOT
BRANCH   1  17
ATOM     12  C1  UNL     1       0.292  54.392 -25.409  0.00  0.00    +0.000 A 
ATOM     13  C2  UNL     1      -0.976  53.901 -25.740  0.00  0.00    +0.000 A 
ATOM     14  C3  UNL     1      -1.798  53.346 -24.754  0.00  0.00    +0.000 A 
ATOM     15  C4  UNL     1      -1.348  53.285 -23.434  0.00  0.00    +0.000 A 
ATOM     16  C5  UNL     1      -0.083  53.774 -23.097  0.00  0.00    +0.000 A 
ATOM     17  C6  UNL     1       0.762  54.336 -24.077  0.00  0.00    +0.000 A 
BRANCH  14  18
ATOM     18  O5  UNL     1      -3.062  52.856 -25.073  0.00  0.00    +0.000 OA
ATOM     19  H10 UNL     1      -3.201  51.890 -25.350  0.00  0.00    +0.000 HD
ENDBRANCH  14  18
ENDBRANCH   1  17
BRANCH   8  20
ATOM     20  O3  UNL     1       5.588  54.603 -18.807  0.00  0.00    +0.000 OA
ATOM     21  H8  UNL     1       6.055  53.727 -18.605  0.00  0.00    +0.000 HD
ENDBRANCH   8  20
BRANCH   6  22
ATOM     22  O4  UNL     1       6.830  56.883 -22.838  0.00  0.00    +0.000 OA
ATOM     23  H9  UNL     1       7.547  56.534 -23.452  0.00  0.00    +0.000 HD
ENDBRANCH   6  22
TORSDOF 4
ENDMDL
MODEL 2
REMARK VINA RESULT:      -5.6      2.975      7.114
REMARK  Name = .\Apigenin.pdb
REMARK  4 active torsions:
REMARK  status: ('A' for Active; 'I' for Inactive)
REMARK    1  A    between atoms: C3_3  and  O5_20
REMARK    2  A    between atoms: C6_6  and  C7_7
REMARK    3  A    between atoms: C11_12  and  O4_19
REMARK    4  A    between atoms: C13_14  and  O3_18
REMARK                            x       y       z     vdW  Elec       q    Type
REMARK                         _______ _______ _______ _____ _____    ______ ____
ROOT
ATOM      1  C7  UNL     1       0.031  53.495 -22.659  0.00  0.00    +0.000 A 
ATOM      2  C8  UNL     1      -1.035  53.366 -23.563  0.00  0.00    +0.000 A 
ATOM      3  C9  UNL     1      -2.100  52.514 -23.267  0.00  0.00    +0.000 A 
ATOM      4  O1  UNL     1      -3.034  52.427 -24.104  0.00  0.00    +0.000 OA
ATOM      5  C10 UNL     1      -2.103  51.779 -22.057  0.00  0.00    +0.000 A 
ATOM      6  C11 UNL     1      -3.133  50.876 -21.642  0.00  0.00    +0.000 A 
ATOM      7  C12 UNL     1      -3.013  50.210 -20.416  0.00  0.00    +0.000 A 
ATOM      8  C13 UNL     1      -1.906  50.411 -19.588  0.00  0.00    +0.000 A 
ATOM      9  C14 UNL     1      -0.899  51.287 -19.982  0.00  0.00    +0.000 A 
ATOM     10  C15 UNL     1      -0.987  51.967 -21.199  0.00  0.00    +0.000 A 
ATOM     11  O2  UNL     1      -0.000  52.793 -21.531  0.00  0.00    +0.000 OA
ENDROOT
BRANCH   1  17
ATOM     12  C1  UNL     1       1.508  54.930 -24.172  0.00  0.00    +0.000 A 
ATOM     13  C2  UNL     1       2.620  55.760 -24.348  0.00  0.00    +0.000 A 
ATOM     14  C3  UNL     1       3.452  56.065 -23.266  0.00  0.00    +0.000 A 
ATOM     15  C4  UNL     1       3.168  55.536 -22.007  0.00  0.00    +0.000 A 
ATOM     16  C5  UNL     1       2.059  54.707 -21.824  0.00  0.00    +0.000 A 
ATOM     17  C6  UNL     1       1.207  54.388 -22.903  0.00  0.00    +0.000 A 
BRANCH  14  18
ATOM     18  O5  UNL     1       4.562  56.890 -23.432  0.00  0.00    +0.000 OA
ATOM     19  H10 UNL     1       5.235  56.730 -24.173  0.00  0.00    +0.000 HD
ENDBRANCH  14  18
ENDBRANCH   1  17
BRANCH   8  20
ATOM     20  O3  UNL     1      -1.799  49.742 -18.371  0.00  0.00    +0.000 OA
ATOM     21  H8  UNL     1      -2.155  50.143 -17.512  0.00  0.00    +0.000 HD
ENDBRANCH   8  20
BRANCH   6  22
ATOM     22  O4  UNL     1      -4.286  50.592 -22.381  0.00  0.00    +0.000 OA
ATOM     23  H9  UNL     1      -4.654  49.679 -22.588  0.00  0.00    +0.000 HD
ENDBRANCH   6  22
TORSDOF 4
ENDMDL
MODEL 3
REMARK VINA RESULT:      -5.4      3.655      7.226
REMARK  Name = .\Apigenin.pdb
REMARK  4 active torsions:
REMARK  status: ('A' for Active; 'I' for Inactive)
REMARK    1  A    between atoms: C3_3  and  O5_20
REMARK    2  A    between atoms: C6_6  and  C7_7
REMARK    3  A    between atoms: C11_12  and  O4_19
REMARK    4  A    between atoms: C13_14  and  O3_18
REMARK                            x       y       z     vdW  Elec       q    Type
REMARK                         _______ _______ _______ _____ _____    ______ ____
ROOT
ATOM      1  C7  UNL     1       0.152  53.333 -21.914  0.00  0.00    +0.000 A 
ATOM      2  C8  UNL     1       0.189  51.930 -21.932  0.00  0.00    +0.000 A 
ATOM      3  C9  UNL     1      -0.744  51.199 -21.195  0.00  0.00    +0.000 A 
ATOM      4  O1  UNL     1      -0.675  49.945 -21.238  0.00  0.00    +0.000 OA
ATOM      5  C10 UNL     1      -1.724  51.874 -20.428  0.00  0.00    +0.000 A 
ATOM      6  C11 UNL     1      -2.731  51.239 -19.632  0.00  0.00    +0.000 A 
ATOM      7  C12 UNL     1      -3.644  52.026 -18.919  0.00  0.00    +0.000 A 
ATOM      8  C13 UNL     1      -3.592  53.421 -18.971  0.00  0.00    +0.000 A 
ATOM      9  C14 UNL     1      -2.618  54.048 -19.741  0.00  0.00    +0.000 A 
ATOM     10  C15 UNL     1      -1.691  53.294 -20.464  0.00  0.00    +0.000 A 
ATOM     11  O2  UNL     1      -0.780  53.938 -21.185  0.00  0.00    +0.000 OA
ENDROOT
BRANCH   1  17
ATOM     12  C1  UNL     1       1.897  55.194 -22.069  0.00  0.00    +0.000 A 
ATOM     13  C2  UNL     1       2.783  55.966 -22.827  0.00  0.00    +0.000 A 
ATOM     14  C3  UNL     1       2.907  55.751 -24.203  0.00  0.00    +0.000 A 
ATOM     15  C4  UNL     1       2.142  54.761 -24.819  0.00  0.00    +0.000 A 
ATOM     16  C5  UNL     1       1.255  53.986 -24.067  0.00  0.00    +0.000 A 
ATOM     17  C6  UNL     1       1.115  54.187 -22.678  0.00  0.00    +0.000 A 
BRANCH  14  18
ATOM     18  O5  UNL     1       3.787  56.516 -24.967  0.00  0.00    +0.000 OA
ATOM     19  H10 UNL     1       4.056  57.452 -24.686  0.00  0.00    +0.000 HD
ENDBRANCH  14  18
ENDBRANCH   1  17
BRANCH   8  20
ATOM     20  O3  UNL     1      -4.507  54.192 -18.257  0.00  0.00    +0.000 OA
ATOM     21  H8  UNL     1      -4.617  55.183 -18.433  0.00  0.00    +0.000 HD
ENDBRANCH   8  20
BRANCH   6  22
ATOM     22  O4  UNL     1      -2.884  49.854 -19.501  0.00  0.00    +0.000 OA
ATOM     23  H9  UNL     1      -3.101  49.355 -18.655  0.00  0.00    +0.000 HD
ENDBRANCH   6  22
TORSDOF 4
ENDMDL
MODEL 4
REMARK VINA RESULT:      -5.4      3.637      7.372
REMARK  Name = .\Apigenin.pdb
REMARK  4 active torsions:
REMARK  status: ('A' for Active; 'I' for Inactive)
REMARK    1  A    between atoms: C3_3  and  O5_20
REMARK    2  A    between atoms: C6_6  and  C7_7
REMARK    3  A    between atoms: C11_12  and  O4_19
REMARK    4  A    between atoms: C13_14  and  O3_18
REMARK                            x       y       z     vdW  Elec       q    Type
REMARK                         _______ _______ _______ _____ _____    ______ ____
ROOT
ATOM      1  C7  UNL     1       0.833  52.293 -22.012  0.00  0.00    +0.000 A 
ATOM      2  C8  UNL     1       1.059  51.220 -21.136  0.00  0.00    +0.000 A 
ATOM      3  C9  UNL     1       0.029  50.765 -20.312  0.00  0.00    +0.000 A 
ATOM      4  O1  UNL     1       0.274  49.802 -19.542  0.00  0.00    +0.000 OA
ATOM      5  C10 UNL     1      -1.242  51.388 -20.358  0.00  0.00    +0.000 A 
ATOM      6  C11 UNL     1      -2.373  51.014 -19.565  0.00  0.00    +0.000 A 
ATOM      7  C12 UNL     1      -3.577  51.714 -19.709  0.00  0.00    +0.000 A 
ATOM      8  C13 UNL     1      -3.696  52.771 -20.614  0.00  0.00    +0.000 A 
ATOM      9  C14 UNL     1      -2.602  53.142 -21.390  0.00  0.00    +0.000 A 
ATOM     10  C15 UNL     1      -1.386  52.466 -21.271  0.00  0.00    +0.000 A 
ATOM     11  O2  UNL     1      -0.371  52.857 -22.034  0.00  0.00    +0.000 OA
ENDROOT
BRANCH   1  17
ATOM     12  C1  UNL     1       3.245  52.472 -22.836  0.00  0.00    +0.000 A 
ATOM     13  C2  UNL     1       4.190  53.010 -23.717  0.00  0.00    +0.000 A 
ATOM     14  C3  UNL     1       3.798  53.920 -24.704  0.00  0.00    +0.000 A 
ATOM     15  C4  UNL     1       2.457  54.291 -24.806  0.00  0.00    +0.000 A 
ATOM     16  C5  UNL     1       1.509  53.758 -23.930  0.00  0.00    +0.000 A 
ATOM     17  C6  UNL     1       1.883  52.838 -22.928  0.00  0.00    +0.000 A 
BRANCH  14  18
ATOM     18  O5  UNL     1       4.731  54.461 -25.584  0.00  0.00    +0.000 OA
ATOM     19  H10 UNL     1       5.695  54.147 -25.593  0.00  0.00    +0.000 HD
ENDBRANCH  14  18
ENDBRANCH   1  17
BRANCH   8  20
ATOM     20  O3  UNL     1      -4.900  53.460 -20.748  0.00  0.00    +0.000 OA
ATOM     21  H8  UNL     1      -5.414  53.792 -19.942  0.00  0.00    +0.000 HD
ENDBRANCH   8  20
BRANCH   6  22
ATOM     22  O4  UNL     1      -2.378  49.976 -18.627  0.00  0.00    +0.000 OA
ATOM     23  H9  UNL     1      -3.089  49.272 -18.518  0.00  0.00    +0.000 HD
ENDBRANCH   6  22
TORSDOF 4
ENDMDL
MODEL 5
REMARK VINA RESULT:      -5.3      1.181      2.976
REMARK  Name = .\Apigenin.pdb
REMARK  4 active torsions:
REMARK  status: ('A' for Active; 'I' for Inactive)
REMARK    1  A    between atoms: C3_3  and  O5_20
REMARK    2  A    between atoms: C6_6  and  C7_7
REMARK    3  A    between atoms: C11_12  and  O4_19
REMARK    4  A    between atoms: C13_14  and  O3_18
REMARK                            x       y       z     vdW  Elec       q    Type
REMARK                         _______ _______ _______ _____ _____    ______ ____
ROOT
ATOM      1  C7  UNL     1       2.138  54.557 -22.918  0.00  0.00    +0.000 A 
ATOM      2  C8  UNL     1       2.615  54.185 -21.651  0.00  0.00    +0.000 A 
ATOM      3  C9  UNL     1       3.886  54.589 -21.240  0.00  0.00    +0.000 A 
ATOM      4  O1  UNL     1       4.275  54.234 -20.099  0.00  0.00    +0.000 OA
ATOM      5  C10 UNL     1       4.693  55.372 -22.101  0.00  0.00    +0.000 A 
ATOM      6  C11 UNL     1       6.009  55.846 -21.795  0.00  0.00    +0.000 A 
ATOM      7  C12 UNL     1       6.701  56.614 -22.738  0.00  0.00    +0.000 A 
ATOM      8  C13 UNL     1       6.132  56.929 -23.974  0.00  0.00    +0.000 A 
ATOM      9  C14 UNL     1       4.853  56.474 -24.282  0.00  0.00    +0.000 A 
ATOM     10  C15 UNL     1       4.135  55.705 -23.364  0.00  0.00    +0.000 A 
ATOM     11  O2  UNL     1       2.918  55.293 -23.704  0.00  0.00    +0.000 OA
ENDROOT
BRANCH   1  17
ATOM     12  C1  UNL     1      -0.169  53.495 -22.638  0.00  0.00    +0.000 A 
ATOM     13  C2  UNL     1      -1.418  53.150 -23.165  0.00  0.00    +0.000 A 
ATOM     14  C3  UNL     1      -1.738  53.465 -24.489  0.00  0.00    +0.000 A 
ATOM     15  C4  UNL     1      -0.802  54.127 -25.285  0.00  0.00    +0.000 A 
ATOM     16  C5  UNL     1       0.447  54.474 -24.765  0.00  0.00    +0.000 A 
ATOM     17  C6  UNL     1       0.788  54.166 -23.431  0.00  0.00    +0.000 A 
BRANCH  14  18
ATOM     18  O5  UNL     1      -2.978  53.125 -25.023  0.00  0.00    +0.000 OA
ATOM     19  H10 UNL     1      -3.837  53.282 -24.508  0.00  0.00    +0.000 HD
ENDBRANCH  14  18
ENDBRANCH   1  17
BRANCH   8  20
ATOM     20  O3  UNL     1       6.831  57.695 -24.904  0.00  0.00    +0.000 OA
ATOM     21  H8  UNL     1       7.829  57.583 -25.041  0.00  0.00    +0.000 HD
ENDBRANCH   8  20
BRANCH   6  22
ATOM     22  O4  UNL     1       6.683  55.598 -20.594  0.00  0.00    +0.000 OA
ATOM     23  H9  UNL     1       7.641  55.305 -20.497  0.00  0.00    +0.000 HD
ENDBRANCH   6  22
TORSDOF 4
ENDMDL
MODEL 6
REMARK VINA RESULT:      -5.1      2.468      2.858
REMARK  Name = .\Apigenin.pdb
REMARK  4 active torsions:
REMARK  status: ('A' for Active; 'I' for Inactive)
REMARK    1  A    between atoms: C3_3  and  O5_20
REMARK    2  A    between atoms: C6_6  and  C7_7
REMARK    3  A    between atoms: C11_12  and  O4_19
REMARK    4  A    between atoms: C13_14  and  O3_18
REMARK                            x       y       z     vdW  Elec       q    Type
REMARK                         _______ _______ _______ _____ _____    ______ ____
ROOT
ATOM      1  C7  UNL     1       2.350  53.870 -23.112  0.00  0.00    +0.000 A 
ATOM      2  C8  UNL     1       2.841  54.894 -22.287  0.00  0.00    +0.000 A 
ATOM      3  C9  UNL     1       4.076  54.745 -21.654  0.00  0.00    +0.000 A 
ATOM      4  O1  UNL     1       4.478  55.686 -20.923  0.00  0.00    +0.000 OA
ATOM      5  C10 UNL     1       4.831  53.563 -21.844  0.00  0.00    +0.000 A 
ATOM      6  C11 UNL     1       6.106  53.294 -21.251  0.00  0.00    +0.000 A 
ATOM      7  C12 UNL     1       6.749  52.080 -21.522  0.00  0.00    +0.000 A 
ATOM      8  C13 UNL     1       6.171  51.126 -22.362  0.00  0.00    +0.000 A 
ATOM      9  C14 UNL     1       4.931  51.377 -22.943  0.00  0.00    +0.000 A 
ATOM     10  C15 UNL     1       4.262  52.577 -22.693  0.00  0.00    +0.000 A 
ATOM     11  O2  UNL     1       3.081  52.771 -23.271  0.00  0.00    +0.000 OA
ENDROOT
BRANCH   1  17
ATOM     12  C1  UNL     1       0.931  54.241 -25.205  0.00  0.00    +0.000 A 
ATOM     13  C2  UNL     1      -0.321  54.308 -25.826  0.00  0.00    +0.000 A 
ATOM     14  C3  UNL     1      -1.488  54.089 -25.088  0.00  0.00    +0.000 A 
ATOM     15  C4  UNL     1      -1.399  53.803 -23.725  0.00  0.00    +0.000 A 
ATOM     16  C5  UNL     1      -0.152  53.736 -23.099  0.00  0.00    +0.000 A 
ATOM     17  C6  UNL     1       1.037  53.953 -23.826  0.00  0.00    +0.000 A 
BRANCH  14  18
ATOM     18  O5  UNL     1      -2.739  54.154 -25.698  0.00  0.00    +0.000 OA
ATOM     19  H10 UNL     1      -3.441  54.820 -25.397  0.00  0.00    +0.000 HD
ENDBRANCH  14  18
ENDBRANCH   1  17
BRANCH   8  20
ATOM     20  O3  UNL     1       6.821  49.922 -22.624  0.00  0.00    +0.000 OA
ATOM     21  H8  UNL     1       6.340  49.033 -22.557  0.00  0.00    +0.000 HD
ENDBRANCH   8  20
BRANCH   6  22
ATOM     22  O4  UNL     1       6.785  54.168 -20.396  0.00  0.00    +0.000 OA
ATOM     23  H9  UNL     1       7.560  53.937 -19.797  0.00  0.00    +0.000 HD
ENDBRANCH   6  22
TORSDOF 4
ENDMDL
MODEL 7
REMARK VINA RESULT:      -5.0      1.729      2.707
REMARK  Name = .\Apigenin.pdb
REMARK  4 active torsions:
REMARK  status: ('A' for Active; 'I' for Inactive)
REMARK    1  A    between atoms: C3_3  and  O5_20
REMARK    2  A    between atoms: C6_6  and  C7_7
REMARK    3  A    between atoms: C11_12  and  O4_19
REMARK    4  A    between atoms: C13_14  and  O3_18
REMARK                            x       y       z     vdW  Elec       q    Type
REMARK                         _______ _______ _______ _____ _____    ______ ____
ROOT
ATOM      1  C7  UNL     1       2.195  53.592 -23.304  0.00  0.00    +0.000 A 
ATOM      2  C8  UNL     1       2.636  52.344 -22.836  0.00  0.00    +0.000 A 
ATOM      3  C9  UNL     1       3.862  52.241 -22.177  0.00  0.00    +0.000 A 
ATOM      4  O1  UNL     1       4.219  51.105 -21.775  0.00  0.00    +0.000 OA
ATOM      5  C10 UNL     1       4.660  53.394 -21.982  0.00  0.00    +0.000 A 
ATOM      6  C11 UNL     1       5.931  53.417 -21.324  0.00  0.00    +0.000 A 
ATOM      7  C12 UNL     1       6.619  54.629 -21.197  0.00  0.00    +0.000 A 
ATOM      8  C13 UNL     1       6.089  55.819 -21.700  0.00  0.00    +0.000 A 
ATOM      9  C14 UNL     1       4.854  55.808 -22.342  0.00  0.00    +0.000 A 
ATOM     10  C15 UNL     1       4.141  54.617 -22.486  0.00  0.00    +0.000 A 
ATOM     11  O2  UNL     1       2.966  54.657 -23.106  0.00  0.00    +0.000 OA
ENDROOT
BRANCH   1  17
ATOM     12  C1  UNL     1       0.815  54.154 -25.380  0.00  0.00    +0.000 A 
ATOM     13  C2  UNL     1      -0.426  54.324 -26.002  0.00  0.00    +0.000 A 
ATOM     14  C3  UNL     1      -1.610  54.130 -25.282  0.00  0.00    +0.000 A 
ATOM     15  C4  UNL     1      -1.547  53.767 -23.937  0.00  0.00    +0.000 A 
ATOM     16  C5  UNL     1      -0.310  53.596 -23.309  0.00  0.00    +0.000 A 
ATOM     17  C6  UNL     1       0.895  53.786 -24.018  0.00  0.00    +0.000 A 
BRANCH  14  18
ATOM     18  O5  UNL     1      -2.850  54.297 -25.893  0.00  0.00    +0.000 OA
ATOM     19  H10 UNL     1      -3.263  53.567 -26.463  0.00  0.00    +0.000 HD
ENDBRANCH  14  18
ENDBRANCH   1  17
BRANCH   8  20
ATOM     20  O3  UNL     1       6.785  57.019 -21.568  0.00  0.00    +0.000 OA
ATOM     21  H8  UNL     1       7.713  57.140 -21.955  0.00  0.00    +0.000 HD
ENDBRANCH   8  20
BRANCH   6  22
ATOM     22  O4  UNL     1       6.564  52.294 -20.780  0.00  0.00    +0.000 OA
ATOM     23  H9  UNL     1       7.523  52.235 -20.481  0.00  0.00    +0.000 HD
ENDBRANCH   6  22
TORSDOF 4
ENDMDL
MODEL 8
REMARK VINA RESULT:      -5.0      2.025      7.286
REMARK  Name = .\Apigenin.pdb
REMARK  4 active torsions:
REMARK  status: ('A' for Active; 'I' for Inactive)
REMARK    1  A    between atoms: C3_3  and  O5_20
REMARK    2  A    between atoms: C6_6  and  C7_7
REMARK    3  A    between atoms: C11_12  and  O4_19
REMARK    4  A    between atoms: C13_14  and  O3_18
REMARK                            x       y       z     vdW  Elec       q    Type
REMARK                         _______ _______ _______ _____ _____    ______ ____
ROOT
ATOM      1  C7  UNL     1       1.763  53.679 -21.838  0.00  0.00    +0.000 A 
ATOM      2  C8  UNL     1       0.601  53.267 -21.167  0.00  0.00    +0.000 A 
ATOM      3  C9  UNL     1      -0.604  53.159 -21.865  0.00  0.00    +0.000 A 
ATOM      4  O1  UNL     1      -1.621  52.788 -21.227  0.00  0.00    +0.000 OA
ATOM      5  C10 UNL     1      -0.652  53.468 -23.246  0.00  0.00    +0.000 A 
ATOM      6  C11 UNL     1      -1.822  53.398 -24.067  0.00  0.00    +0.000 A 
ATOM      7  C12 UNL     1      -1.733  53.731 -25.424  0.00  0.00    +0.000 A 
ATOM      8  C13 UNL     1      -0.522  54.130 -25.993  0.00  0.00    +0.000 A 
ATOM      9  C14 UNL     1       0.622  54.202 -25.204  0.00  0.00    +0.000 A 
ATOM     10  C15 UNL     1       0.568  53.877 -23.847  0.00  0.00    +0.000 A 
ATOM     11  O2  UNL     1       1.687  53.961 -23.134  0.00  0.00    +0.000 OA
ENDROOT
BRANCH   1  17
ATOM     12  C1  UNL     1       3.823  55.026 -21.150  0.00  0.00    +0.000 A 
ATOM     13  C2  UNL     1       5.062  55.104 -20.505  0.00  0.00    +0.000 A 
ATOM     14  C3  UNL     1       5.595  53.983 -19.861  0.00  0.00    +0.000 A 
ATOM     15  C4  UNL     1       4.884  52.782 -19.865  0.00  0.00    +0.000 A 
ATOM     16  C5  UNL     1       3.647  52.697 -20.508  0.00  0.00    +0.000 A 
ATOM     17  C6  UNL     1       3.091  53.817 -21.163  0.00  0.00    +0.000 A 
BRANCH  14  18
ATOM     18  O5  UNL     1       6.828  54.051 -19.216  0.00  0.00    +0.000 OA
ATOM     19  H10 UNL     1       6.958  54.607 -18.379  0.00  0.00    +0.000 HD
ENDBRANCH  14  18
ENDBRANCH   1  17
BRANCH   8  20
ATOM     20  O3  UNL     1      -0.446  54.459 -27.345  0.00  0.00    +0.000 OA
ATOM     21  H8  UNL     1      -0.014  55.319 -27.659  0.00  0.00    +0.000 HD
ENDBRANCH   8  20
BRANCH   6  22
ATOM     22  O4  UNL     1      -3.089  53.013 -23.614  0.00  0.00    +0.000 OA
ATOM     23  H9  UNL     1      -3.785  53.613 -23.204  0.00  0.00    +0.000 HD
ENDBRANCH   6  22
TORSDOF 4
ENDMDL
MODEL 9
REMARK VINA RESULT:      -5.0      3.101      3.773
REMARK  Name = .\Apigenin.pdb
REMARK  4 active torsions:
REMARK  status: ('A' for Active; 'I' for Inactive)
REMARK    1  A    between atoms: C3_3  and  O5_20
REMARK    2  A    between atoms: C6_6  and  C7_7
REMARK    3  A    between atoms: C11_12  and  O4_19
REMARK    4  A    between atoms: C13_14  and  O3_18
REMARK                            x       y       z     vdW  Elec       q    Type
REMARK                         _______ _______ _______ _____ _____    ______ ____
ROOT
ATOM      1  C7  UNL     1       0.443  53.131 -22.769  0.00  0.00    +0.000 A 
ATOM      2  C8  UNL     1       0.607  54.138 -23.734  0.00  0.00    +0.000 A 
ATOM      3  C9  UNL     1       1.853  54.334 -24.331  0.00  0.00    +0.000 A 
ATOM      4  O1  UNL     1       1.957  55.246 -25.189  0.00  0.00    +0.000 OA
ATOM      5  C10 UNL     1       2.951  53.520 -23.960  0.00  0.00    +0.000 A 
ATOM      6  C11 UNL     1       4.274  53.625 -24.497  0.00  0.00    +0.000 A 
ATOM      7  C12 UNL     1       5.272  52.754 -24.043  0.00  0.00    +0.000 A 
ATOM      8  C13 UNL     1       5.002  51.784 -23.076  0.00  0.00    +0.000 A 
ATOM      9  C14 UNL     1       3.719  51.674 -22.547  0.00  0.00    +0.000 A 
ATOM     10  C15 UNL     1       2.700  52.526 -22.977  0.00  0.00    +0.000 A 
ATOM     11  O2  UNL     1       1.492  52.383 -22.443  0.00  0.00    +0.000 OA
ENDROOT
BRANCH   1  17
ATOM     12  C1  UNL     1      -1.616  51.686 -22.318  0.00  0.00    +0.000 A 
ATOM     13  C2  UNL     1      -2.829  51.476 -21.654  0.00  0.00    +0.000 A 
ATOM     14  C3  UNL     1      -3.311  52.425 -20.748  0.00  0.00    +0.000 A 
ATOM     15  C4  UNL     1      -2.576  53.586 -20.508  0.00  0.00    +0.000 A 
ATOM     16  C5  UNL     1      -1.364  53.802 -21.169  0.00  0.00    +0.000 A 
ATOM     17  C6  UNL     1      -0.859  52.857 -22.086  0.00  0.00    +0.000 A 
BRANCH  14  18
ATOM     18  O5  UNL     1      -4.518  52.225 -20.082  0.00  0.00    +0.000 OA
ATOM     19  H10 UNL     1      -5.191  51.537 -20.401  0.00  0.00    +0.000 HD
ENDBRANCH  14  18
ENDBRANCH   1  17
BRANCH   8  20
ATOM     20  O3  UNL     1       6.005  50.924 -22.633  0.00  0.00    +0.000 OA
ATOM     21  H8  UNL     1       6.284  50.112 -23.170  0.00  0.00    +0.000 HD
ENDBRANCH   8  20
BRANCH   6  22
ATOM     22  O4  UNL     1       4.667  54.552 -25.468  0.00  0.00    +0.000 OA
ATOM     23  H9  UNL     1       5.064  54.343 -26.368  0.00  0.00    +0.000 HD
ENDBRANCH   6  22
TORSDOF 4
ENDMDL
