MODEL 1
REMARK VINA RESULT:      -5.6      0.000      0.000
REMARK  Name = .\Apigenin.pdb
REMARK  4 active torsions:
REMARK  status: ('A' for Active; 'I' for Inactive)
REMARK    1  A    between atoms: C3_3  and  O5_20
REMARK    2  A    between atoms: C6_6  and  C7_7
REMARK    3  A    between atoms: C11_12  and  O4_19
REMARK    4  A    between atoms: C13_14  and  O3_18
REMARK                            x       y       z     vdW  Elec       q    Type
REMARK                         _______ _______ _______ _____ _____    ______ ____
ROOT
ATOM      1  C7  UNL     1     -16.589  79.842  62.962  0.00  0.00    +0.000 A 
ATOM      2  C8  UNL     1     -16.717  79.128  64.164  0.00  0.00    +0.000 A 
ATOM      3  C9  UNL     1     -16.497  77.750  64.181  0.00  0.00    +0.000 A 
ATOM      4  O1  UNL     1     -16.623  77.148  65.277  0.00  0.00    +0.000 OA
ATOM      5  C10 UNL     1     -16.148  77.074  62.986  0.00  0.00    +0.000 A 
ATOM      6  C11 UNL     1     -15.899  75.668  62.876  0.00  0.00    +0.000 A 
ATOM      7  C12 UNL     1     -15.561  75.124  61.631  0.00  0.00    +0.000 A 
ATOM      8  C13 UNL     1     -15.460  75.928  60.493  0.00  0.00    +0.000 A 
ATOM      9  C14 UNL     1     -15.700  77.295  60.590  0.00  0.00    +0.000 A 
ATOM     10  C15 UNL     1     -16.040  77.870  61.815  0.00  0.00    +0.000 A 
ATOM     11  O2  UNL     1     -16.259  79.180  61.857  0.00  0.00    +0.000 OA
ENDROOT
BRANCH   1  17
ATOM     12  C1  UNL     1     -17.825  81.892  62.067  0.00  0.00    +0.000 A 
ATOM     13  C2  UNL     1     -17.987  83.280  62.006  0.00  0.00    +0.000 A 
ATOM     14  C3  UNL     1     -17.139  84.123  62.732  0.00  0.00    +0.000 A 
ATOM     15  C4  UNL     1     -16.128  83.572  63.519  0.00  0.00    +0.000 A 
ATOM     16  C5  UNL     1     -15.961  82.187  63.585  0.00  0.00    +0.000 A 
ATOM     17  C6  UNL     1     -16.806  81.319  62.861  0.00  0.00    +0.000 A 
BRANCH  14  18
ATOM     18  O5  UNL     1     -17.292  85.506  62.676  0.00  0.00    +0.000 OA
ATOM     19  H10 UNL     1     -17.813  86.011  63.385  0.00  0.00    +0.000 HD
ENDBRANCH  14  18
ENDBRANCH   1  17
BRANCH   8  20
ATOM     20  O3  UNL     1     -15.122  75.374  59.261  0.00  0.00    +0.000 OA
ATOM     21  H8  UNL     1     -15.318  75.854  58.391  0.00  0.00    +0.000 HD
ENDBRANCH   8  20
BRANCH   6  22
ATOM     22  O4  UNL     1     -15.969  74.763  63.941  0.00  0.00    +0.000 OA
ATOM     23  H9  UNL     1     -16.746  74.166  64.168  0.00  0.00    +0.000 HD
ENDBRANCH   6  22
TORSDOF 4
ENDMDL
MODEL 2
REMARK VINA RESULT:      -5.5      1.684      1.955
REMARK  Name = .\Apigenin.pdb
REMARK  4 active torsions:
REMARK  status: ('A' for Active; 'I' for Inactive)
REMARK    1  A    between atoms: C3_3  and  O5_20
REMARK    2  A    between atoms: C6_6  and  C7_7
REMARK    3  A    between atoms: C11_12  and  O4_19
REMARK    4  A    between atoms: C13_14  and  O3_18
REMARK                            x       y       z     vdW  Elec       q    Type
REMARK                         _______ _______ _______ _____ _____    ______ ____
ROOT
ATOM      1  C7  UNL     1     -16.659  81.270  63.327  0.00  0.00    +0.000 A 
ATOM      2  C8  UNL     1     -17.573  80.570  64.130  0.00  0.00    +0.000 A 
ATOM      3  C9  UNL     1     -17.406  79.201  64.343  0.00  0.00    +0.000 A 
ATOM      4  O1  UNL     1     -18.246  78.612  65.069  0.00  0.00    +0.000 OA
ATOM      5  C10 UNL     1     -16.316  78.520  63.748  0.00  0.00    +0.000 A 
ATOM      6  C11 UNL     1     -16.039  77.123  63.891  0.00  0.00    +0.000 A 
ATOM      7  C12 UNL     1     -14.924  76.573  63.246  0.00  0.00    +0.000 A 
ATOM      8  C13 UNL     1     -14.075  77.362  62.467  0.00  0.00    +0.000 A 
ATOM      9  C14 UNL     1     -14.336  78.721  62.322  0.00  0.00    +0.000 A 
ATOM     10  C15 UNL     1     -15.439  79.302  62.950  0.00  0.00    +0.000 A 
ATOM     11  O2  UNL     1     -15.646  80.604  62.782  0.00  0.00    +0.000 OA
ENDROOT
BRANCH   1  17
ATOM     12  C1  UNL     1     -17.801  83.295  62.266  0.00  0.00    +0.000 A 
ATOM     13  C2  UNL     1     -17.859  84.674  62.037  0.00  0.00    +0.000 A 
ATOM     14  C3  UNL     1     -16.891  85.522  62.585  0.00  0.00    +0.000 A 
ATOM     15  C4  UNL     1     -15.864  84.986  63.362  0.00  0.00    +0.000 A 
ATOM     16  C5  UNL     1     -15.801  83.609  63.594  0.00  0.00    +0.000 A 
ATOM     17  C6  UNL     1     -16.768  82.737  63.051  0.00  0.00    +0.000 A 
BRANCH  14  18
ATOM     18  O5  UNL     1     -16.940  86.896  62.362  0.00  0.00    +0.000 OA
ATOM     19  H10 UNL     1     -16.556  87.555  63.030  0.00  0.00    +0.000 HD
ENDBRANCH  14  18
ENDBRANCH   1  17
BRANCH   8  20
ATOM     20  O3  UNL     1     -12.969  76.802  61.832  0.00  0.00    +0.000 OA
ATOM     21  H8  UNL     1     -12.036  76.889  62.215  0.00  0.00    +0.000 HD
ENDBRANCH   8  20
BRANCH   6  22
ATOM     22  O4  UNL     1     -16.813  76.232  64.642  0.00  0.00    +0.000 OA
ATOM     23  H9  UNL     1     -17.813  76.250  64.746  0.00  0.00    +0.000 HD
ENDBRANCH   6  22
TORSDOF 4
ENDMDL
MODEL 3
REMARK VINA RESULT:      -5.0      1.701      2.911
REMARK  Name = .\Apigenin.pdb
REMARK  4 active torsions:
REMARK  status: ('A' for Active; 'I' for Inactive)
REMARK    1  A    between atoms: C3_3  and  O5_20
REMARK    2  A    between atoms: C6_6  and  C7_7
REMARK    3  A    between atoms: C11_12  and  O4_19
REMARK    4  A    between atoms: C13_14  and  O3_18
REMARK                            x       y       z     vdW  Elec       q    Type
REMARK                         _______ _______ _______ _____ _____    ______ ____
ROOT
ATOM      1  C7  UNL     1     -16.200  80.248  63.352  0.00  0.00    +0.000 A 
ATOM      2  C8  UNL     1     -15.359  80.251  62.228  0.00  0.00    +0.000 A 
ATOM      3  C9  UNL     1     -14.912  79.042  61.691  0.00  0.00    +0.000 A 
ATOM      4  O1  UNL     1     -14.160  79.089  60.685  0.00  0.00    +0.000 OA
ATOM      5  C10 UNL     1     -15.305  77.817  62.282  0.00  0.00    +0.000 A 
ATOM      6  C11 UNL     1     -14.913  76.518  61.826  0.00  0.00    +0.000 A 
ATOM      7  C12 UNL     1     -15.374  75.382  62.503  0.00  0.00    +0.000 A 
ATOM      8  C13 UNL     1     -16.211  75.492  63.615  0.00  0.00    +0.000 A 
ATOM      9  C14 UNL     1     -16.598  76.750  64.067  0.00  0.00    +0.000 A 
ATOM     10  C15 UNL     1     -16.156  77.904  63.416  0.00  0.00    +0.000 A 
ATOM     11  O2  UNL     1     -16.552  79.082  63.884  0.00  0.00    +0.000 OA
ENDROOT
BRANCH   1  17
ATOM     12  C1  UNL     1     -17.695  81.492  65.010  0.00  0.00    +0.000 A 
ATOM     13  C2  UNL     1     -18.152  82.689  65.570  0.00  0.00    +0.000 A 
ATOM     14  C3  UNL     1     -17.652  83.915  65.121  0.00  0.00    +0.000 A 
ATOM     15  C4  UNL     1     -16.692  83.939  64.109  0.00  0.00    +0.000 A 
ATOM     16  C5  UNL     1     -16.231  82.746  63.546  0.00  0.00    +0.000 A 
ATOM     17  C6  UNL     1     -16.723  81.499  63.985  0.00  0.00    +0.000 A 
BRANCH  14  18
ATOM     18  O5  UNL     1     -18.101  85.113  65.672  0.00  0.00    +0.000 OA
ATOM     19  H10 UNL     1     -18.970  85.540  65.373  0.00  0.00    +0.000 HD
ENDBRANCH  14  18
ENDBRANCH   1  17
BRANCH   8  20
ATOM     20  O3  UNL     1     -16.663  74.354  64.279  0.00  0.00    +0.000 OA
ATOM     21  H8  UNL     1     -17.099  73.586  63.782  0.00  0.00    +0.000 HD
ENDBRANCH   8  20
BRANCH   6  22
ATOM     22  O4  UNL     1     -14.081  76.279  60.726  0.00  0.00    +0.000 OA
ATOM     23  H9  UNL     1     -13.610  75.416  60.509  0.00  0.00    +0.000 HD
ENDBRANCH   6  22
TORSDOF 4
ENDMDL
MODEL 4
REMARK VINA RESULT:      -5.0      1.662      2.940
REMARK  Name = .\Apigenin.pdb
REMARK  4 active torsions:
REMARK  status: ('A' for Active; 'I' for Inactive)
REMARK    1  A    between atoms: C3_3  and  O5_20
REMARK    2  A    between atoms: C6_6  and  C7_7
REMARK    3  A    between atoms: C11_12  and  O4_19
REMARK    4  A    between atoms: C13_14  and  O3_18
REMARK                            x       y       z     vdW  Elec       q    Type
REMARK                         _______ _______ _______ _____ _____    ______ ____
ROOT
ATOM      1  C7  UNL     1     -16.231  80.132  63.264  0.00  0.00    +0.000 A 
ATOM      2  C8  UNL     1     -15.438  80.101  62.106  0.00  0.00    +0.000 A 
ATOM      3  C9  UNL     1     -15.040  78.876  61.568  0.00  0.00    +0.000 A 
ATOM      4  O1  UNL     1     -14.330  78.893  60.531  0.00  0.00    +0.000 OA
ATOM      5  C10 UNL     1     -15.433  77.668  62.193  0.00  0.00    +0.000 A 
ATOM      6  C11 UNL     1     -15.088  76.354  61.739  0.00  0.00    +0.000 A 
ATOM      7  C12 UNL     1     -15.544  75.238  62.451  0.00  0.00    +0.000 A 
ATOM      8  C13 UNL     1     -16.331  75.381  63.596  0.00  0.00    +0.000 A 
ATOM      9  C14 UNL     1     -16.671  76.653  64.045  0.00  0.00    +0.000 A 
ATOM     10  C15 UNL     1     -16.233  77.788  63.360  0.00  0.00    +0.000 A 
ATOM     11  O2  UNL     1     -16.585  78.981  63.827  0.00  0.00    +0.000 OA
ENDROOT
BRANCH   1  17
ATOM     12  C1  UNL     1     -16.218  82.675  63.519  0.00  0.00    +0.000 A 
ATOM     13  C2  UNL     1     -16.688  83.834  64.146  0.00  0.00    +0.000 A 
ATOM     14  C3  UNL     1     -17.646  83.749  65.161  0.00  0.00    +0.000 A 
ATOM     15  C4  UNL     1     -18.131  82.499  65.549  0.00  0.00    +0.000 A 
ATOM     16  C5  UNL     1     -17.665  81.338  64.928  0.00  0.00    +0.000 A 
ATOM     17  C6  UNL     1     -16.700  81.403  63.900  0.00  0.00    +0.000 A 
BRANCH  14  18
ATOM     18  O5  UNL     1     -18.120  84.897  65.791  0.00  0.00    +0.000 OA
ATOM     19  H10 UNL     1     -17.569  85.747  65.827  0.00  0.00    +0.000 HD
ENDBRANCH  14  18
ENDBRANCH   1  17
BRANCH   8  20
ATOM     20  O3  UNL     1     -16.778  74.262  64.295  0.00  0.00    +0.000 OA
ATOM     21  H8  UNL     1     -17.081  74.325  65.260  0.00  0.00    +0.000 HD
ENDBRANCH   8  20
BRANCH   6  22
ATOM     22  O4  UNL     1     -14.309  76.083  60.609  0.00  0.00    +0.000 OA
ATOM     23  H9  UNL     1     -14.549  75.465  59.852  0.00  0.00    +0.000 HD
ENDBRANCH   6  22
TORSDOF 4
ENDMDL
MODEL 5
REMARK VINA RESULT:      -4.9      1.548      2.004
REMARK  Name = .\Apigenin.pdb
REMARK  4 active torsions:
REMARK  status: ('A' for Active; 'I' for Inactive)
REMARK    1  A    between atoms: C3_3  and  O5_20
REMARK    2  A    between atoms: C6_6  and  C7_7
REMARK    3  A    between atoms: C11_12  and  O4_19
REMARK    4  A    between atoms: C13_14  and  O3_18
REMARK                            x       y       z     vdW  Elec       q    Type
REMARK                         _______ _______ _______ _____ _____    ______ ____
ROOT
ATOM      1  C7  UNL     1     -16.577  79.349  62.172  0.00  0.00    +0.000 A 
ATOM      2  C8  UNL     1     -15.765  78.556  62.998  0.00  0.00    +0.000 A 
ATOM      3  C9  UNL     1     -15.622  77.193  62.732  0.00  0.00    +0.000 A 
ATOM      4  O1  UNL     1     -14.886  76.519  63.496  0.00  0.00    +0.000 OA
ATOM      5  C10 UNL     1     -16.297  76.613  61.631  0.00  0.00    +0.000 A 
ATOM      6  C11 UNL     1     -16.230  75.232  61.257  0.00  0.00    +0.000 A 
ATOM      7  C12 UNL     1     -16.949  74.786  60.141  0.00  0.00    +0.000 A 
ATOM      8  C13 UNL     1     -17.730  75.662  59.384  0.00  0.00    +0.000 A 
ATOM      9  C14 UNL     1     -17.802  77.006  59.740  0.00  0.00    +0.000 A 
ATOM     10  C15 UNL     1     -17.098  77.485  60.847  0.00  0.00    +0.000 A 
ATOM     11  O2  UNL     1     -17.198  78.775  61.146  0.00  0.00    +0.000 OA
ENDROOT
BRANCH   1  17
ATOM     12  C1  UNL     1     -15.996  81.574  63.287  0.00  0.00    +0.000 A 
ATOM     13  C2  UNL     1     -16.226  82.943  63.455  0.00  0.00    +0.000 A 
ATOM     14  C3  UNL     1     -17.241  83.582  62.736  0.00  0.00    +0.000 A 
ATOM     15  C4  UNL     1     -18.026  82.846  61.848  0.00  0.00    +0.000 A 
ATOM     16  C5  UNL     1     -17.801  81.478  61.675  0.00  0.00    +0.000 A 
ATOM     17  C6  UNL     1     -16.781  80.815  62.390  0.00  0.00    +0.000 A 
BRANCH  14  18
ATOM     18  O5  UNL     1     -17.479  84.945  62.898  0.00  0.00    +0.000 OA
ATOM     19  H10 UNL     1     -16.790  85.638  62.629  0.00  0.00    +0.000 HD
ENDBRANCH  14  18
ENDBRANCH   1  17
BRANCH   8  20
ATOM     20  O3  UNL     1     -18.440  75.205  58.277  0.00  0.00    +0.000 OA
ATOM     21  H8  UNL     1     -18.635  74.220  58.141  0.00  0.00    +0.000 HD
ENDBRANCH   8  20
BRANCH   6  22
ATOM     22  O4  UNL     1     -15.484  74.261  61.933  0.00  0.00    +0.000 OA
ATOM     23  H9  UNL     1     -15.763  73.310  62.110  0.00  0.00    +0.000 HD
ENDBRANCH   6  22
TORSDOF 4
ENDMDL
MODEL 6
REMARK VINA RESULT:      -4.8      1.675      2.557
REMARK  Name = .\Apigenin.pdb
REMARK  4 active torsions:
REMARK  status: ('A' for Active; 'I' for Inactive)
REMARK    1  A    between atoms: C3_3  and  O5_20
REMARK    2  A    between atoms: C6_6  and  C7_7
REMARK    3  A    between atoms: C11_12  and  O4_19
REMARK    4  A    between atoms: C13_14  and  O3_18
REMARK                            x       y       z     vdW  Elec       q    Type
REMARK                         _______ _______ _______ _____ _____    ______ ____
ROOT
ATOM      1  C7  UNL     1     -16.314  80.300  62.818  0.00  0.00    +0.000 A 
ATOM      2  C8  UNL     1     -15.043  79.898  62.379  0.00  0.00    +0.000 A 
ATOM      3  C9  UNL     1     -14.658  78.561  62.493  0.00  0.00    +0.000 A 
ATOM      4  O1  UNL     1     -13.511  78.243  62.089  0.00  0.00    +0.000 OA
ATOM      5  C10 UNL     1     -15.548  77.613  63.053  0.00  0.00    +0.000 A 
ATOM      6  C11 UNL     1     -15.270  76.219  63.223  0.00  0.00    +0.000 A 
ATOM      7  C12 UNL     1     -16.242  75.387  63.792  0.00  0.00    +0.000 A 
ATOM      8  C13 UNL     1     -17.480  75.891  64.196  0.00  0.00    +0.000 A 
ATOM      9  C14 UNL     1     -17.761  77.245  64.035  0.00  0.00    +0.000 A 
ATOM     10  C15 UNL     1     -16.814  78.103  63.472  0.00  0.00    +0.000 A 
ATOM     11  O2  UNL     1     -17.128  79.387  63.338  0.00  0.00    +0.000 OA
ENDROOT
BRANCH   1  17
ATOM     12  C1  UNL     1     -17.878  82.100  61.900  0.00  0.00    +0.000 A 
ATOM     13  C2  UNL     1     -18.296  83.434  61.851  0.00  0.00    +0.000 A 
ATOM     14  C3  UNL     1     -17.652  84.405  62.626  0.00  0.00    +0.000 A 
ATOM     15  C4  UNL     1     -16.588  84.036  63.449  0.00  0.00    +0.000 A 
ATOM     16  C5  UNL     1     -16.165  82.706  63.501  0.00  0.00    +0.000 A 
ATOM     17  C6  UNL     1     -16.802  81.711  62.729  0.00  0.00    +0.000 A 
BRANCH  14  18
ATOM     18  O5  UNL     1     -18.062  85.736  62.584  0.00  0.00    +0.000 OA
ATOM     19  H10 UNL     1     -17.485  86.454  62.160  0.00  0.00    +0.000 HD
ENDBRANCH  14  18
ENDBRANCH   1  17
BRANCH   8  20
ATOM     20  O3  UNL     1     -18.439  75.053  64.761  0.00  0.00    +0.000 OA
ATOM     21  H8  UNL     1     -18.478  74.888  65.759  0.00  0.00    +0.000 HD
ENDBRANCH   8  20
BRANCH   6  22
ATOM     22  O4  UNL     1     -14.071  75.598  62.859  0.00  0.00    +0.000 OA
ATOM     23  H9  UNL     1     -13.783  75.355  61.926  0.00  0.00    +0.000 HD
ENDBRANCH   6  22
TORSDOF 4
ENDMDL
MODEL 7
REMARK VINA RESULT:      -4.6      1.824      6.601
REMARK  Name = .\Apigenin.pdb
REMARK  4 active torsions:
REMARK  status: ('A' for Active; 'I' for Inactive)
REMARK    1  A    between atoms: C3_3  and  O5_20
REMARK    2  A    between atoms: C6_6  and  C7_7
REMARK    3  A    between atoms: C11_12  and  O4_19
REMARK    4  A    between atoms: C13_14  and  O3_18
REMARK                            x       y       z     vdW  Elec       q    Type
REMARK                         _______ _______ _______ _____ _____    ______ ____
ROOT
ATOM      1  C7  UNL     1     -16.438  79.451  62.651  0.00  0.00    +0.000 A 
ATOM      2  C8  UNL     1     -16.528  79.204  64.030  0.00  0.00    +0.000 A 
ATOM      3  C9  UNL     1     -16.997  80.200  64.887  0.00  0.00    +0.000 A 
ATOM      4  O1  UNL     1     -17.061  79.938  66.115  0.00  0.00    +0.000 OA
ATOM      5  C10 UNL     1     -17.381  81.460  64.365  0.00  0.00    +0.000 A 
ATOM      6  C11 UNL     1     -17.875  82.558  65.139  0.00  0.00    +0.000 A 
ATOM      7  C12 UNL     1     -18.221  83.753  64.496  0.00  0.00    +0.000 A 
ATOM      8  C13 UNL     1     -18.093  83.894  63.113  0.00  0.00    +0.000 A 
ATOM      9  C14 UNL     1     -17.613  82.833  62.351  0.00  0.00    +0.000 A 
ATOM     10  C15 UNL     1     -17.259  81.627  62.960  0.00  0.00    +0.000 A 
ATOM     11  O2  UNL     1     -16.806  80.643  62.191  0.00  0.00    +0.000 OA
ENDROOT
BRANCH   1  17
ATOM     12  C1  UNL     1     -14.716  78.563  60.984  0.00  0.00    +0.000 A 
ATOM     13  C2  UNL     1     -14.301  77.586  60.073  0.00  0.00    +0.000 A 
ATOM     14  C3  UNL     1     -15.101  76.466  59.827  0.00  0.00    +0.000 A 
ATOM     15  C4  UNL     1     -16.318  76.326  60.494  0.00  0.00    +0.000 A 
ATOM     16  C5  UNL     1     -16.738  77.299  61.405  0.00  0.00    +0.000 A 
ATOM     17  C6  UNL     1     -15.946  78.436  61.668  0.00  0.00    +0.000 A 
BRANCH  14  18
ATOM     18  O5  UNL     1     -14.696  75.488  58.921  0.00  0.00    +0.000 OA
ATOM     19  H10 UNL     1     -15.230  74.636  58.787  0.00  0.00    +0.000 HD
ENDBRANCH  14  18
ENDBRANCH   1  17
BRANCH   8  20
ATOM     20  O3  UNL     1     -18.440  85.089  62.486  0.00  0.00    +0.000 OA
ATOM     21  H8  UNL     1     -18.155  85.987  62.858  0.00  0.00    +0.000 HD
ENDBRANCH   8  20
BRANCH   6  22
ATOM     22  O4  UNL     1     -18.048  82.538  66.527  0.00  0.00    +0.000 OA
ATOM     23  H9  UNL     1     -17.747  81.813  67.156  0.00  0.00    +0.000 HD
ENDBRANCH   6  22
TORSDOF 4
ENDMDL
MODEL 8
REMARK VINA RESULT:      -4.6      1.224      1.546
REMARK  Name = .\Apigenin.pdb
REMARK  4 active torsions:
REMARK  status: ('A' for Active; 'I' for Inactive)
REMARK    1  A    between atoms: C3_3  and  O5_20
REMARK    2  A    between atoms: C6_6  and  C7_7
REMARK    3  A    between atoms: C11_12  and  O4_19
REMARK    4  A    between atoms: C13_14  and  O3_18
REMARK                            x       y       z     vdW  Elec       q    Type
REMARK                         _______ _______ _______ _____ _____    ______ ____
ROOT
ATOM      1  C7  UNL     1     -16.447  80.333  63.187  0.00  0.00    +0.000 A 
ATOM      2  C8  UNL     1     -16.518  79.383  64.219  0.00  0.00    +0.000 A 
ATOM      3  C9  UNL     1     -16.012  78.098  64.017  0.00  0.00    +0.000 A 
ATOM      4  O1  UNL     1     -16.096  77.278  64.966  0.00  0.00    +0.000 OA
ATOM      5  C10 UNL     1     -15.429  77.755  62.773  0.00  0.00    +0.000 A 
ATOM      6  C11 UNL     1     -14.877  76.474  62.446  0.00  0.00    +0.000 A 
ATOM      7  C12 UNL     1     -14.329  76.265  61.175  0.00  0.00    +0.000 A 
ATOM      8  C13 UNL     1     -14.308  77.283  60.219  0.00  0.00    +0.000 A 
ATOM      9  C14 UNL     1     -14.842  78.531  60.527  0.00  0.00    +0.000 A 
ATOM     10  C15 UNL     1     -15.397  78.773  61.784  0.00  0.00    +0.000 A 
ATOM     11  O2  UNL     1     -15.894  79.981  62.031  0.00  0.00    +0.000 OA
ENDROOT
BRANCH   1  17
ATOM     12  C1  UNL     1     -17.152  82.360  64.576  0.00  0.00    +0.000 A 
ATOM     13  C2  UNL     1     -17.640  83.668  64.651  0.00  0.00    +0.000 A 
ATOM     14  C3  UNL     1     -17.951  84.375  63.485  0.00  0.00    +0.000 A 
ATOM     15  C4  UNL     1     -17.772  83.766  62.242  0.00  0.00    +0.000 A 
ATOM     16  C5  UNL     1     -17.285  82.459  62.160  0.00  0.00    +0.000 A 
ATOM     17  C6  UNL     1     -16.965  81.730  63.325  0.00  0.00    +0.000 A 
BRANCH  14  18
ATOM     18  O5  UNL     1     -18.438  85.678  63.550  0.00  0.00    +0.000 OA
ATOM     19  H10 UNL     1     -17.998  86.379  64.135  0.00  0.00    +0.000 HD
ENDBRANCH  14  18
ENDBRANCH   1  17
BRANCH   8  20
ATOM     20  O3  UNL     1     -13.760  77.061  58.958  0.00  0.00    +0.000 OA
ATOM     21  H8  UNL     1     -13.864  76.173  58.481  0.00  0.00    +0.000 HD
ENDBRANCH   8  20
BRANCH   6  22
ATOM     22  O4  UNL     1     -14.839  75.380  63.317  0.00  0.00    +0.000 OA
ATOM     23  H9  UNL     1     -14.380  75.343  64.211  0.00  0.00    +0.000 HD
ENDBRANCH   6  22
TORSDOF 4
ENDMDL
MODEL 9
REMARK VINA RESULT:      -4.3      2.168      3.209
REMARK  Name = .\Apigenin.pdb
REMARK  4 active torsions:
REMARK  status: ('A' for Active; 'I' for Inactive)
REMARK    1  A    between atoms: C3_3  and  O5_20
REMARK    2  A    between atoms: C6_6  and  C7_7
REMARK    3  A    between atoms: C11_12  and  O4_19
REMARK    4  A    between atoms: C13_14  and  O3_18
REMARK                            x       y       z     vdW  Elec       q    Type
REMARK                         _______ _______ _______ _____ _____    ______ ____
ROOT
ATOM      1  C7  UNL     1     -16.313  79.149  61.971  0.00  0.00    +0.000 A 
ATOM      2  C8  UNL     1     -16.963  77.906  61.919  0.00  0.00    +0.000 A 
ATOM      3  C9  UNL     1     -16.534  76.933  61.015  0.00  0.00    +0.000 A 
ATOM      4  O1  UNL     1     -17.144  75.834  61.000  0.00  0.00    +0.000 OA
ATOM      5  C10 UNL     1     -15.445  77.202  60.151  0.00  0.00    +0.000 A 
ATOM      6  C11 UNL     1     -14.914  76.289  59.184  0.00  0.00    +0.000 A 
ATOM      7  C12 UNL     1     -13.830  76.682  58.389  0.00  0.00    +0.000 A 
ATOM      8  C13 UNL     1     -13.255  77.947  58.522  0.00  0.00    +0.000 A 
ATOM      9  C14 UNL     1     -13.763  78.842  59.459  0.00  0.00    +0.000 A 
ATOM     10  C15 UNL     1     -14.844  78.484  60.268  0.00  0.00    +0.000 A 
ATOM     11  O2  UNL     1     -15.294  79.372  61.148  0.00  0.00    +0.000 OA
ENDROOT
BRANCH   1  17
ATOM     12  C1  UNL     1     -15.840  81.290  63.284  0.00  0.00    +0.000 A 
ATOM     13  C2  UNL     1     -16.260  82.289  64.168  0.00  0.00    +0.000 A 
ATOM     14  C3  UNL     1     -17.555  82.265  64.698  0.00  0.00    +0.000 A 
ATOM     15  C4  UNL     1     -18.427  81.236  64.340  0.00  0.00    +0.000 A 
ATOM     16  C5  UNL     1     -18.013  80.235  63.458  0.00  0.00    +0.000 A 
ATOM     17  C6  UNL     1     -16.712  80.242  62.912  0.00  0.00    +0.000 A 
BRANCH  14  18
ATOM     18  O5  UNL     1     -17.982  83.255  65.579  0.00  0.00    +0.000 OA
ATOM     19  H10 UNL     1     -18.705  83.917  65.322  0.00  0.00    +0.000 HD
ENDBRANCH  14  18
ENDBRANCH   1  17
BRANCH   8  20
ATOM     20  O3  UNL     1     -12.176  78.325  57.726  0.00  0.00    +0.000 OA
ATOM     21  H8  UNL     1     -12.112  79.252  57.323  0.00  0.00    +0.000 HD
ENDBRANCH   8  20
BRANCH   6  22
ATOM     22  O4  UNL     1     -15.403  74.998  58.957  0.00  0.00    +0.000 OA
ATOM     23  H9  UNL     1     -16.248  74.756  58.468  0.00  0.00    +0.000 HD
ENDBRANCH   6  22
TORSDOF 4
ENDMDL
