MODEL 1
REMARK VINA RESULT:      -5.9      0.000      0.000
REMARK  Name = .\Apigenin.pdb
REMARK  4 active torsions:
REMARK  status: ('A' for Active; 'I' for Inactive)
REMARK    1  A    between atoms: C3_3  and  O5_20
REMARK    2  A    between atoms: C6_6  and  C7_7
REMARK    3  A    between atoms: C11_12  and  O4_19
REMARK    4  A    between atoms: C13_14  and  O3_18
REMARK                            x       y       z     vdW  Elec       q    Type
REMARK                         _______ _______ _______ _____ _____    ______ ____
ROOT
ATOM      1  C7  UNL     1       0.157  35.222  17.422  0.00  0.00    +0.000 A 
ATOM      2  C8  UNL     1       1.061  34.710  18.367  0.00  0.00    +0.000 A 
ATOM      3  C9  UNL     1       1.557  33.414  18.225  0.00  0.00    +0.000 A 
ATOM      4  O1  UNL     1       2.364  32.994  19.093  0.00  0.00    +0.000 OA
ATOM      5  C10 UNL     1       1.147  32.615  17.129  0.00  0.00    +0.000 A 
ATOM      6  C11 UNL     1       1.584  31.276  16.876  0.00  0.00    +0.000 A 
ATOM      7  C12 UNL     1       1.100  30.595  15.752  0.00  0.00    +0.000 A 
ATOM      8  C13 UNL     1       0.200  31.198  14.871  0.00  0.00    +0.000 A 
ATOM      9  C14 UNL     1      -0.231  32.500  15.109  0.00  0.00    +0.000 A 
ATOM     10  C15 UNL     1       0.231  33.208  16.220  0.00  0.00    +0.000 A 
ATOM     11  O2  UNL     1      -0.209  34.448  16.405  0.00  0.00    +0.000 OA
ENDROOT
BRANCH   1  17
ATOM     12  C1  UNL     1      -1.494  36.933  18.357  0.00  0.00    +0.000 A 
ATOM     13  C2  UNL     1      -1.997  38.238  18.396  0.00  0.00    +0.000 A 
ATOM     14  C3  UNL     1      -1.441  39.234  17.587  0.00  0.00    +0.000 A 
ATOM     15  C4  UNL     1      -0.379  38.920  16.738  0.00  0.00    +0.000 A 
ATOM     16  C5  UNL     1       0.128  37.619  16.695  0.00  0.00    +0.000 A 
ATOM     17  C6  UNL     1      -0.419  36.600  17.503  0.00  0.00    +0.000 A 
BRANCH  14  18
ATOM     18  O5  UNL     1      -1.936  40.536  17.619  0.00  0.00    +0.000 OA
ATOM     19  H10 UNL     1      -2.738  40.811  17.064  0.00  0.00    +0.000 HD
ENDBRANCH  14  18
ENDBRANCH   1  17
BRANCH   8  20
ATOM     20  O3  UNL     1      -0.273  30.510  13.757  0.00  0.00    +0.000 OA
ATOM     21  H8  UNL     1      -0.914  30.939  13.100  0.00  0.00    +0.000 HD
ENDBRANCH   8  20
BRANCH   6  22
ATOM     22  O4  UNL     1       2.481  30.566  17.682  0.00  0.00    +0.000 OA
ATOM     23  H9  UNL     1       3.257  30.009  17.365  0.00  0.00    +0.000 HD
ENDBRANCH   6  22
TORSDOF 4
ENDMDL
MODEL 2
REMARK VINA RESULT:      -5.8      0.578      1.218
REMARK  Name = .\Apigenin.pdb
REMARK  4 active torsions:
REMARK  status: ('A' for Active; 'I' for Inactive)
REMARK    1  A    between atoms: C3_3  and  O5_20
REMARK    2  A    between atoms: C6_6  and  C7_7
REMARK    3  A    between atoms: C11_12  and  O4_19
REMARK    4  A    between atoms: C13_14  and  O3_18
REMARK                            x       y       z     vdW  Elec       q    Type
REMARK                         _______ _______ _______ _____ _____    ______ ____
ROOT
ATOM      1  C7  UNL     1       0.547  35.344  17.176  0.00  0.00    +0.000 A 
ATOM      2  C8  UNL     1       1.668  34.933  17.915  0.00  0.00    +0.000 A 
ATOM      3  C9  UNL     1       2.228  33.675  17.686  0.00  0.00    +0.000 A 
ATOM      4  O1  UNL     1       3.230  33.345  18.369  0.00  0.00    +0.000 OA
ATOM      5  C10 UNL     1       1.665  32.816  16.711  0.00  0.00    +0.000 A 
ATOM      6  C11 UNL     1       2.147  31.508  16.387  0.00  0.00    +0.000 A 
ATOM      7  C12 UNL     1       1.497  30.759  15.398  0.00  0.00    +0.000 A 
ATOM      8  C13 UNL     1       0.386  31.265  14.721  0.00  0.00    +0.000 A 
ATOM      9  C14 UNL     1      -0.091  32.536  15.029  0.00  0.00    +0.000 A 
ATOM     10  C15 UNL     1       0.533  33.309  16.009  0.00  0.00    +0.000 A 
ATOM     11  O2  UNL     1       0.041  34.516  16.267  0.00  0.00    +0.000 OA
ENDROOT
BRANCH   1  17
ATOM     12  C1  UNL     1       0.219  37.808  16.582  0.00  0.00    +0.000 A 
ATOM     13  C2  UNL     1      -0.425  39.032  16.794  0.00  0.00    +0.000 A 
ATOM     14  C3  UNL     1      -1.407  39.152  17.782  0.00  0.00    +0.000 A 
ATOM     15  C4  UNL     1      -1.742  38.042  18.559  0.00  0.00    +0.000 A 
ATOM     16  C5  UNL     1      -1.103  36.817  18.353  0.00  0.00    +0.000 A 
ATOM     17  C6  UNL     1      -0.110  36.676  17.361  0.00  0.00    +0.000 A 
BRANCH  14  18
ATOM     18  O5  UNL     1      -2.053  40.366  18.001  0.00  0.00    +0.000 OA
ATOM     19  H10 UNL     1      -2.295  40.677  18.935  0.00  0.00    +0.000 HD
ENDBRANCH  14  18
ENDBRANCH   1  17
BRANCH   8  20
ATOM     20  O3  UNL     1      -0.252  30.510  13.739  0.00  0.00    +0.000 OA
ATOM     21  H8  UNL     1       0.242  30.178  12.920  0.00  0.00    +0.000 HD
ENDBRANCH   8  20
BRANCH   6  22
ATOM     22  O4  UNL     1       3.248  30.893  16.994  0.00  0.00    +0.000 OA
ATOM     23  H9  UNL     1       3.760  31.235  17.790  0.00  0.00    +0.000 HD
ENDBRANCH   6  22
TORSDOF 4
ENDMDL
MODEL 3
REMARK VINA RESULT:      -5.7      1.914      2.358
REMARK  Name = .\Apigenin.pdb
REMARK  4 active torsions:
REMARK  status: ('A' for Active; 'I' for Inactive)
REMARK    1  A    between atoms: C3_3  and  O5_20
REMARK    2  A    between atoms: C6_6  and  C7_7
REMARK    3  A    between atoms: C11_12  and  O4_19
REMARK    4  A    between atoms: C13_14  and  O3_18
REMARK                            x       y       z     vdW  Elec       q    Type
REMARK                         _______ _______ _______ _____ _____    ______ ____
ROOT
ATOM      1  C7  UNL     1       0.088  35.459  17.087  0.00  0.00    +0.000 A 
ATOM      2  C8  UNL     1      -0.417  34.285  17.666  0.00  0.00    +0.000 A 
ATOM      3  C9  UNL     1       0.167  33.053  17.366  0.00  0.00    +0.000 A 
ATOM      4  O1  UNL     1      -0.317  32.026  17.906  0.00  0.00    +0.000 OA
ATOM      5  C10 UNL     1       1.266  32.990  16.476  0.00  0.00    +0.000 A 
ATOM      6  C11 UNL     1       1.947  31.791  16.090  0.00  0.00    +0.000 A 
ATOM      7  C12 UNL     1       3.025  31.868  15.199  0.00  0.00    +0.000 A 
ATOM      8  C13 UNL     1       3.449  33.093  14.679  0.00  0.00    +0.000 A 
ATOM      9  C14 UNL     1       2.793  34.264  15.047  0.00  0.00    +0.000 A 
ATOM     10  C15 UNL     1       1.715  34.224  15.933  0.00  0.00    +0.000 A 
ATOM     11  O2  UNL     1       1.121  35.368  16.255  0.00  0.00    +0.000 OA
ENDROOT
BRANCH   1  17
ATOM     12  C1  UNL     1      -0.058  37.977  16.672  0.00  0.00    +0.000 A 
ATOM     13  C2  UNL     1      -0.621  39.224  16.963  0.00  0.00    +0.000 A 
ATOM     14  C3  UNL     1      -1.614  39.339  17.942  0.00  0.00    +0.000 A 
ATOM     15  C4  UNL     1      -2.041  38.203  18.628  0.00  0.00    +0.000 A 
ATOM     16  C5  UNL     1      -1.482  36.954  18.342  0.00  0.00    +0.000 A 
ATOM     17  C6  UNL     1      -0.481  36.816  17.359  0.00  0.00    +0.000 A 
BRANCH  14  18
ATOM     18  O5  UNL     1      -2.179  40.577  18.239  0.00  0.00    +0.000 OA
ATOM     19  H10 UNL     1      -1.943  41.077  19.088  0.00  0.00    +0.000 HD
ENDBRANCH  14  18
ENDBRANCH   1  17
BRANCH   8  20
ATOM     20  O3  UNL     1       4.522  33.155  13.793  0.00  0.00    +0.000 OA
ATOM     21  H8  UNL     1       5.481  33.164  14.120  0.00  0.00    +0.000 HD
ENDBRANCH   8  20
BRANCH   6  22
ATOM     22  O4  UNL     1       1.617  30.509  16.542  0.00  0.00    +0.000 OA
ATOM     23  H9  UNL     1       2.136  29.664  16.371  0.00  0.00    +0.000 HD
ENDBRANCH   6  22
TORSDOF 4
ENDMDL
MODEL 4
REMARK VINA RESULT:      -4.5      1.304      2.783
REMARK  Name = .\Apigenin.pdb
REMARK  4 active torsions:
REMARK  status: ('A' for Active; 'I' for Inactive)
REMARK    1  A    between atoms: C3_3  and  O5_20
REMARK    2  A    between atoms: C6_6  and  C7_7
REMARK    3  A    between atoms: C11_12  and  O4_19
REMARK    4  A    between atoms: C13_14  and  O3_18
REMARK                            x       y       z     vdW  Elec       q    Type
REMARK                         _______ _______ _______ _____ _____    ______ ____
ROOT
ATOM      1  C7  UNL     1       0.066  35.086  17.127  0.00  0.00    +0.000 A 
ATOM      2  C8  UNL     1       0.087  34.490  15.857  0.00  0.00    +0.000 A 
ATOM      3  C9  UNL     1       0.677  33.236  15.687  0.00  0.00    +0.000 A 
ATOM      4  O1  UNL     1       0.676  32.737  14.533  0.00  0.00    +0.000 OA
ATOM      5  C10 UNL     1       1.254  32.569  16.795  0.00  0.00    +0.000 A 
ATOM      6  C11 UNL     1       1.887  31.286  16.748  0.00  0.00    +0.000 A 
ATOM      7  C12 UNL     1       2.418  30.737  17.921  0.00  0.00    +0.000 A 
ATOM      8  C13 UNL     1       2.343  31.417  19.138  0.00  0.00    +0.000 A 
ATOM      9  C14 UNL     1       1.730  32.665  19.195  0.00  0.00    +0.000 A 
ATOM     10  C15 UNL     1       1.190  33.242  18.044  0.00  0.00    +0.000 A 
ATOM     11  O2  UNL     1       0.615  34.436  18.148  0.00  0.00    +0.000 OA
ENDROOT
BRANCH   1  17
ATOM     12  C1  UNL     1      -1.450  36.659  18.454  0.00  0.00    +0.000 A 
ATOM     13  C2  UNL     1      -1.997  37.930  18.660  0.00  0.00    +0.000 A 
ATOM     14  C3  UNL     1      -1.657  38.991  17.814  0.00  0.00    +0.000 A 
ATOM     15  C4  UNL     1      -0.768  38.775  16.760  0.00  0.00    +0.000 A 
ATOM     16  C5  UNL     1      -0.218  37.508  16.549  0.00  0.00    +0.000 A 
ATOM     17  C6  UNL     1      -0.548  36.425  17.392  0.00  0.00    +0.000 A 
BRANCH  14  18
ATOM     18  O5  UNL     1      -2.197  40.259  18.010  0.00  0.00    +0.000 OA
ATOM     19  H10 UNL     1      -2.929  40.424  18.692  0.00  0.00    +0.000 HD
ENDBRANCH  14  18
ENDBRANCH   1  17
BRANCH   8  20
ATOM     20  O3  UNL     1       2.876  30.859  20.298  0.00  0.00    +0.000 OA
ATOM     21  H8  UNL     1       2.625  31.203  21.217  0.00  0.00    +0.000 HD
ENDBRANCH   8  20
BRANCH   6  22
ATOM     22  O4  UNL     1       2.023  30.509  15.592  0.00  0.00    +0.000 OA
ATOM     23  H9  UNL     1       2.635  30.696  14.815  0.00  0.00    +0.000 HD
ENDBRANCH   6  22
TORSDOF 4
ENDMDL
MODEL 5
REMARK VINA RESULT:      -3.4      2.328      6.787
REMARK  Name = .\Apigenin.pdb
REMARK  4 active torsions:
REMARK  status: ('A' for Active; 'I' for Inactive)
REMARK    1  A    between atoms: C3_3  and  O5_20
REMARK    2  A    between atoms: C6_6  and  C7_7
REMARK    3  A    between atoms: C11_12  and  O4_19
REMARK    4  A    between atoms: C13_14  and  O3_18
REMARK                            x       y       z     vdW  Elec       q    Type
REMARK                         _______ _______ _______ _____ _____    ______ ____
ROOT
ATOM      1  C7  UNL     1       0.940  35.134  16.715  0.00  0.00    +0.000 A 
ATOM      2  C8  UNL     1       0.315  34.710  17.898  0.00  0.00    +0.000 A 
ATOM      3  C9  UNL     1      -0.576  35.558  18.558  0.00  0.00    +0.000 A 
ATOM      4  O1  UNL     1      -1.113  35.139  19.614  0.00  0.00    +0.000 OA
ATOM      5  C10 UNL     1      -0.846  36.845  18.034  0.00  0.00    +0.000 A 
ATOM      6  C11 UNL     1      -1.737  37.803  18.617  0.00  0.00    +0.000 A 
ATOM      7  C12 UNL     1      -1.916  39.045  17.995  0.00  0.00    +0.000 A 
ATOM      8  C13 UNL     1      -1.243  39.367  16.815  0.00  0.00    +0.000 A 
ATOM      9  C14 UNL     1      -0.375  38.443  16.240  0.00  0.00    +0.000 A 
ATOM     10  C15 UNL     1      -0.173  37.196  16.834  0.00  0.00    +0.000 A 
ATOM     11  O2  UNL     1       0.665  36.348  16.247  0.00  0.00    +0.000 OA
ENDROOT
BRANCH   1  17
ATOM     12  C1  UNL     1       3.134  34.776  15.455  0.00  0.00    +0.000 A 
ATOM     13  C2  UNL     1       4.002  33.941  14.744  0.00  0.00    +0.000 A 
ATOM     14  C3  UNL     1       3.664  32.604  14.510  0.00  0.00    +0.000 A 
ATOM     15  C4  UNL     1       2.453  32.105  14.991  0.00  0.00    +0.000 A 
ATOM     16  C5  UNL     1       1.581  32.934  15.702  0.00  0.00    +0.000 A 
ATOM     17  C6  UNL     1       1.905  34.285  15.949  0.00  0.00    +0.000 A 
BRANCH  14  18
ATOM     18  O5  UNL     1       4.522  31.765  13.803  0.00  0.00    +0.000 OA
ATOM     19  H10 UNL     1       4.364  31.550  12.825  0.00  0.00    +0.000 HD
ENDBRANCH  14  18
ENDBRANCH   1  17
BRANCH   8  20
ATOM     20  O3  UNL     1      -1.430  40.606  16.206  0.00  0.00    +0.000 OA
ATOM     21  H8  UNL     1      -1.223  40.753  15.226  0.00  0.00    +0.000 HD
ENDBRANCH   8  20
BRANCH   6  22
ATOM     22  O4  UNL     1      -2.466  37.597  19.793  0.00  0.00    +0.000 OA
ATOM     23  H9  UNL     1      -3.379  37.964  20.003  0.00  0.00    +0.000 HD
ENDBRANCH   6  22
TORSDOF 4
ENDMDL
MODEL 6
REMARK VINA RESULT:      -3.2      2.287      7.009
REMARK  Name = .\Apigenin.pdb
REMARK  4 active torsions:
REMARK  status: ('A' for Active; 'I' for Inactive)
REMARK    1  A    between atoms: C3_3  and  O5_20
REMARK    2  A    between atoms: C6_6  and  C7_7
REMARK    3  A    between atoms: C11_12  and  O4_19
REMARK    4  A    between atoms: C13_14  and  O3_18
REMARK                            x       y       z     vdW  Elec       q    Type
REMARK                         _______ _______ _______ _____ _____    ______ ____
ROOT
ATOM      1  C7  UNL     1       0.800  34.818  17.344  0.00  0.00    +0.000 A 
ATOM      2  C8  UNL     1      -0.594  34.679  17.433  0.00  0.00    +0.000 A 
ATOM      3  C9  UNL     1      -1.417  35.793  17.258  0.00  0.00    +0.000 A 
ATOM      4  O1  UNL     1      -2.660  35.626  17.347  0.00  0.00    +0.000 OA
ATOM      5  C10 UNL     1      -0.845  37.061  16.993  0.00  0.00    +0.000 A 
ATOM      6  C11 UNL     1      -1.580  38.273  16.797  0.00  0.00    +0.000 A 
ATOM      7  C12 UNL     1      -0.889  39.464  16.540  0.00  0.00    +0.000 A 
ATOM      8  C13 UNL     1       0.506  39.492  16.471  0.00  0.00    +0.000 A 
ATOM      9  C14 UNL     1       1.230  38.318  16.661  0.00  0.00    +0.000 A 
ATOM     10  C15 UNL     1       0.573  37.114  16.919  0.00  0.00    +0.000 A 
ATOM     11  O2  UNL     1       1.308  36.020  17.093  0.00  0.00    +0.000 OA
ENDROOT
BRANCH   1  17
ATOM     12  C1  UNL     1       1.891  32.644  16.561  0.00  0.00    +0.000 A 
ATOM     13  C2  UNL     1       2.793  31.595  16.770  0.00  0.00    +0.000 A 
ATOM     14  C3  UNL     1       3.568  31.551  17.933  0.00  0.00    +0.000 A 
ATOM     15  C4  UNL     1       3.437  32.560  18.888  0.00  0.00    +0.000 A 
ATOM     16  C5  UNL     1       2.539  33.611  18.685  0.00  0.00    +0.000 A 
ATOM     17  C6  UNL     1       1.748  33.674  17.518  0.00  0.00    +0.000 A 
BRANCH  14  18
ATOM     18  O5  UNL     1       4.467  30.510  18.150  0.00  0.00    +0.000 OA
ATOM     19  H10 UNL     1       4.325  29.832  18.891  0.00  0.00    +0.000 HD
ENDBRANCH  14  18
ENDBRANCH   1  17
BRANCH   8  20
ATOM     20  O3  UNL     1       1.181  40.683  16.216  0.00  0.00    +0.000 OA
ATOM     21  H8  UNL     1       1.376  40.990  15.270  0.00  0.00    +0.000 HD
ENDBRANCH   8  20
BRANCH   6  22
ATOM     22  O4  UNL     1      -2.975  38.373  16.841  0.00  0.00    +0.000 OA
ATOM     23  H9  UNL     1      -3.534  39.111  16.446  0.00  0.00    +0.000 HD
ENDBRANCH   6  22
TORSDOF 4
ENDMDL
