MODEL 1
REMARK VINA RESULT:      -6.4      0.000      0.000
REMARK  Name = .\Apigenin.pdb
REMARK  4 active torsions:
REMARK  status: ('A' for Active; 'I' for Inactive)
REMARK    1  A    between atoms: C3_3  and  O5_20
REMARK    2  A    between atoms: C6_6  and  C7_7
REMARK    3  A    between atoms: C11_12  and  O4_19
REMARK    4  A    between atoms: C13_14  and  O3_18
REMARK                            x       y       z     vdW  Elec       q    Type
REMARK                         _______ _______ _______ _____ _____    ______ ____
ROOT
ATOM      1  C7  UNL     1      -9.127  38.079  18.327  0.00  0.00    +0.000 A 
ATOM      2  C8  UNL     1      -7.740  37.966  18.137  0.00  0.00    +0.000 A 
ATOM      3  C9  UNL     1      -6.948  37.379  19.125  0.00  0.00    +0.000 A 
ATOM      4  O1  UNL     1      -5.711  37.299  18.915  0.00  0.00    +0.000 OA
ATOM      5  C10 UNL     1      -7.543  36.900  20.317  0.00  0.00    +0.000 A 
ATOM      6  C11 UNL     1      -6.839  36.281  21.399  0.00  0.00    +0.000 A 
ATOM      7  C12 UNL     1      -7.549  35.850  22.526  0.00  0.00    +0.000 A 
ATOM      8  C13 UNL     1      -8.934  36.011  22.614  0.00  0.00    +0.000 A 
ATOM      9  C14 UNL     1      -9.627  36.611  21.568  0.00  0.00    +0.000 A 
ATOM     10  C15 UNL     1      -8.950  37.053  20.430  0.00  0.00    +0.000 A 
ATOM     11  O2  UNL     1      -9.656  37.619  19.457  0.00  0.00    +0.000 OA
ENDROOT
BRANCH   1  17
ATOM     12  C1  UNL     1     -10.969  37.939  16.562  0.00  0.00    +0.000 A 
ATOM     13  C2  UNL     1     -11.805  38.561  15.629  0.00  0.00    +0.000 A 
ATOM     14  C3  UNL     1     -11.736  39.944  15.430  0.00  0.00    +0.000 A 
ATOM     15  C4  UNL     1     -10.827  40.702  16.168  0.00  0.00    +0.000 A 
ATOM     16  C5  UNL     1      -9.989  40.087  17.101  0.00  0.00    +0.000 A 
ATOM     17  C6  UNL     1     -10.044  38.694  17.317  0.00  0.00    +0.000 A 
BRANCH  14  18
ATOM     18  O5  UNL     1     -12.565  40.572  14.503  0.00  0.00    +0.000 OA
ATOM     19  H10 UNL     1     -13.555  40.362  14.450  0.00  0.00    +0.000 HD
ENDBRANCH  14  18
ENDBRANCH   1  17
BRANCH   8  20
ATOM     20  O3  UNL     1      -9.629  35.577  23.741  0.00  0.00    +0.000 OA
ATOM     21  H8  UNL     1     -10.580  35.234  23.679  0.00  0.00    +0.000 HD
ENDBRANCH   8  20
BRANCH   6  22
ATOM     22  O4  UNL     1      -5.457  36.065  21.428  0.00  0.00    +0.000 OA
ATOM     23  H9  UNL     1      -4.988  35.182  21.316  0.00  0.00    +0.000 HD
ENDBRANCH   6  22
TORSDOF 4
ENDMDL
MODEL 2
REMARK VINA RESULT:      -5.4      0.959      1.530
REMARK  Name = .\Apigenin.pdb
REMARK  4 active torsions:
REMARK  status: ('A' for Active; 'I' for Inactive)
REMARK    1  A    between atoms: C3_3  and  O5_20
REMARK    2  A    between atoms: C6_6  and  C7_7
REMARK    3  A    between atoms: C11_12  and  O4_19
REMARK    4  A    between atoms: C13_14  and  O3_18
REMARK                            x       y       z     vdW  Elec       q    Type
REMARK                         _______ _______ _______ _____ _____    ______ ____
ROOT
ATOM      1  C7  UNL     1      -9.518  38.330  18.730  0.00  0.00    +0.000 A 
ATOM      2  C8  UNL     1      -8.151  38.014  18.783  0.00  0.00    +0.000 A 
ATOM      3  C9  UNL     1      -7.650  37.273  19.854  0.00  0.00    +0.000 A 
ATOM      4  O1  UNL     1      -6.420  37.012  19.864  0.00  0.00    +0.000 OA
ATOM      5  C10 UNL     1      -8.520  36.842  20.886  0.00  0.00    +0.000 A 
ATOM      6  C11 UNL     1      -8.126  36.079  22.032  0.00  0.00    +0.000 A 
ATOM      7  C12 UNL     1      -9.090  35.716  22.981  0.00  0.00    +0.000 A 
ATOM      8  C13 UNL     1     -10.429  36.084  22.831  0.00  0.00    +0.000 A 
ATOM      9  C14 UNL     1     -10.821  36.825  21.721  0.00  0.00    +0.000 A 
ATOM     10  C15 UNL     1      -9.887  37.204  20.755  0.00  0.00    +0.000 A 
ATOM     11  O2  UNL     1     -10.310  37.911  19.713  0.00  0.00    +0.000 OA
ENDROOT
BRANCH   1  17
ATOM     12  C1  UNL     1      -9.795  40.465  17.353  0.00  0.00    +0.000 A 
ATOM     13  C2  UNL     1     -10.399  41.160  16.300  0.00  0.00    +0.000 A 
ATOM     14  C3  UNL     1     -11.348  40.529  15.490  0.00  0.00    +0.000 A 
ATOM     15  C4  UNL     1     -11.692  39.200  15.738  0.00  0.00    +0.000 A 
ATOM     16  C5  UNL     1     -11.093  38.500  16.788  0.00  0.00    +0.000 A 
ATOM     17  C6  UNL     1     -10.133  39.119  17.617  0.00  0.00    +0.000 A 
BRANCH  14  18
ATOM     18  O5  UNL     1     -11.954  41.212  14.439  0.00  0.00    +0.000 OA
ATOM     19  H10 UNL     1     -11.493  41.324  13.543  0.00  0.00    +0.000 HD
ENDBRANCH  14  18
ENDBRANCH   1  17
BRANCH   8  20
ATOM     20  O3  UNL     1     -11.377  35.716  23.783  0.00  0.00    +0.000 OA
ATOM     21  H8  UNL     1     -12.099  36.358  24.089  0.00  0.00    +0.000 HD
ENDBRANCH   8  20
BRANCH   6  22
ATOM     22  O4  UNL     1      -6.820  35.653  22.292  0.00  0.00    +0.000 OA
ATOM     23  H9  UNL     1      -6.202  36.016  22.999  0.00  0.00    +0.000 HD
ENDBRANCH   6  22
TORSDOF 4
ENDMDL
