MODEL 1
REMARK VINA RESULT:       8.3      0.000      0.000
REMARK  Name = .\Apigenin.pdb
REMARK  4 active torsions:
REMARK  status: ('A' for Active; 'I' for Inactive)
REMARK    1  A    between atoms: C3_3  and  O5_20
REMARK    2  A    between atoms: C6_6  and  C7_7
REMARK    3  A    between atoms: C11_12  and  O4_19
REMARK    4  A    between atoms: C13_14  and  O3_18
REMARK                            x       y       z     vdW  Elec       q    Type
REMARK                         _______ _______ _______ _____ _____    ______ ____
ROOT
ATOM      1  C7  UNL     1      -1.526  34.229  29.859  0.00  0.00    +0.000 A 
ATOM      2  C8  UNL     1      -0.228  33.899  29.439  0.00  0.00    +0.000 A 
ATOM      3  C9  UNL     1      -0.044  33.086  28.319  0.00  0.00    +0.000 A 
ATOM      4  O1  UNL     1       1.134  32.814  27.977  0.00  0.00    +0.000 OA
ATOM      5  C10 UNL     1      -1.167  32.593  27.611  0.00  0.00    +0.000 A 
ATOM      6  C11 UNL     1      -1.108  31.753  26.453  0.00  0.00    +0.000 A 
ATOM      7  C12 UNL     1      -2.298  31.334  25.845  0.00  0.00    +0.000 A 
ATOM      8  C13 UNL     1      -3.542  31.721  26.346  0.00  0.00    +0.000 A 
ATOM      9  C14 UNL     1      -3.611  32.538  27.471  0.00  0.00    +0.000 A 
ATOM     10  C15 UNL     1      -2.444  32.973  28.102  0.00  0.00    +0.000 A 
ATOM     11  O2  UNL     1      -2.560  33.751  29.173  0.00  0.00    +0.000 OA
ENDROOT
BRANCH   1  17
ATOM     12  C1  UNL     1      -1.717  34.626  32.376  0.00  0.00    +0.000 A 
ATOM     13  C2  UNL     1      -1.989  35.476  33.453  0.00  0.00    +0.000 A 
ATOM     14  C3  UNL     1      -2.357  36.807  33.227  0.00  0.00    +0.000 A 
ATOM     15  C4  UNL     1      -2.451  37.284  31.919  0.00  0.00    +0.000 A 
ATOM     16  C5  UNL     1      -2.180  36.440  30.840  0.00  0.00    +0.000 A 
ATOM     17  C6  UNL     1      -1.807  35.095  31.046  0.00  0.00    +0.000 A 
BRANCH  14  18
ATOM     18  O5  UNL     1      -2.631  37.660  34.293  0.00  0.00    +0.000 OA
ATOM     19  H10 UNL     1      -3.165  37.350  35.097  0.00  0.00    +0.000 HD
ENDBRANCH  14  18
ENDBRANCH   1  17
BRANCH   8  20
ATOM     20  O3  UNL     1      -4.718  31.298  25.731  0.00  0.00    +0.000 OA
ATOM     21  H8  UNL     1      -5.589  31.222  26.244  0.00  0.00    +0.000 HD
ENDBRANCH   8  20
BRANCH   6  22
ATOM     22  O4  UNL     1       0.075  31.300  25.859  0.00  0.00    +0.000 OA
ATOM     23  H9  UNL     1       0.530  31.697  25.054  0.00  0.00    +0.000 HD
ENDBRANCH   6  22
TORSDOF 4
ENDMDL
