MODEL 1
REMARK VINA RESULT:      -3.7      0.000      0.000
REMARK  Name = .\Apigenin.pdb
REMARK  4 active torsions:
REMARK  status: ('A' for Active; 'I' for Inactive)
REMARK    1  A    between atoms: C3_3  and  O5_20
REMARK    2  A    between atoms: C6_6  and  C7_7
REMARK    3  A    between atoms: C11_12  and  O4_19
REMARK    4  A    between atoms: C13_14  and  O3_18
REMARK                            x       y       z     vdW  Elec       q    Type
REMARK                         _______ _______ _______ _____ _____    ______ ____
ROOT
ATOM      1  C7  UNL     1     -25.224  39.937   5.705  0.00  0.00    +0.000 A 
ATOM      2  C8  UNL     1     -24.952  39.815   4.333  0.00  0.00    +0.000 A 
ATOM      3  C9  UNL     1     -24.087  38.817   3.881  0.00  0.00    +0.000 A 
ATOM      4  O1  UNL     1     -23.870  38.743   2.645  0.00  0.00    +0.000 OA
ATOM      5  C10 UNL     1     -23.484  37.931   4.806  0.00  0.00    +0.000 A 
ATOM      6  C11 UNL     1     -22.583  36.871   4.466  0.00  0.00    +0.000 A 
ATOM      7  C12 UNL     1     -22.056  36.064   5.482  0.00  0.00    +0.000 A 
ATOM      8  C13 UNL     1     -22.394  36.271   6.821  0.00  0.00    +0.000 A 
ATOM      9  C14 UNL     1     -23.269  37.298   7.161  0.00  0.00    +0.000 A 
ATOM     10  C15 UNL     1     -23.812  38.122   6.174  0.00  0.00    +0.000 A 
ATOM     11  O2  UNL     1     -24.643  39.089   6.549  0.00  0.00    +0.000 OA
ENDROOT
BRANCH   1  17
ATOM     12  C1  UNL     1     -26.749  41.974   5.474  0.00  0.00    +0.000 A 
ATOM     13  C2  UNL     1     -27.597  42.926   6.049  0.00  0.00    +0.000 A 
ATOM     14  C3  UNL     1     -27.855  42.904   7.423  0.00  0.00    +0.000 A 
ATOM     15  C4  UNL     1     -27.259  41.927   8.221  0.00  0.00    +0.000 A 
ATOM     16  C5  UNL     1     -26.411  40.973   7.653  0.00  0.00    +0.000 A 
ATOM     17  C6  UNL     1     -26.139  40.978   6.268  0.00  0.00    +0.000 A 
BRANCH  14  18
ATOM     18  O5  UNL     1     -28.698  43.848   8.005  0.00  0.00    +0.000 OA
ATOM     19  H10 UNL     1     -28.979  43.780   8.976  0.00  0.00    +0.000 HD
ENDBRANCH  14  18
ENDBRANCH   1  17
BRANCH   8  20
ATOM     20  O3  UNL     1     -21.862  35.460   7.821  0.00  0.00    +0.000 OA
ATOM     21  H8  UNL     1     -20.887  35.187   7.821  0.00  0.00    +0.000 HD
ENDBRANCH   8  20
BRANCH   6  22
ATOM     22  O4  UNL     1     -22.171  36.565   3.165  0.00  0.00    +0.000 OA
ATOM     23  H9  UNL     1     -22.563  35.860   2.564  0.00  0.00    +0.000 HD
ENDBRANCH   6  22
TORSDOF 4
ENDMDL
MODEL 2
REMARK VINA RESULT:      -3.1      2.540      6.571
REMARK  Name = .\Apigenin.pdb
REMARK  4 active torsions:
REMARK  status: ('A' for Active; 'I' for Inactive)
REMARK    1  A    between atoms: C3_3  and  O5_20
REMARK    2  A    between atoms: C6_6  and  C7_7
REMARK    3  A    between atoms: C11_12  and  O4_19
REMARK    4  A    between atoms: C13_14  and  O3_18
REMARK                            x       y       z     vdW  Elec       q    Type
REMARK                         _______ _______ _______ _____ _____    ______ ____
ROOT
ATOM      1  C7  UNL     1     -24.149  38.637   4.866  0.00  0.00    +0.000 A 
ATOM      2  C8  UNL     1     -23.684  39.885   5.309  0.00  0.00    +0.000 A 
ATOM      3  C9  UNL     1     -24.287  40.503   6.406  0.00  0.00    +0.000 A 
ATOM      4  O1  UNL     1     -23.840  41.620   6.770  0.00  0.00    +0.000 OA
ATOM      5  C10 UNL     1     -25.368  39.872   7.068  0.00  0.00    +0.000 A 
ATOM      6  C11 UNL     1     -26.066  40.403   8.200  0.00  0.00    +0.000 A 
ATOM      7  C12 UNL     1     -27.120  39.674   8.763  0.00  0.00    +0.000 A 
ATOM      8  C13 UNL     1     -27.504  38.437   8.243  0.00  0.00    +0.000 A 
ATOM      9  C14 UNL     1     -26.832  37.911   7.143  0.00  0.00    +0.000 A 
ATOM     10  C15 UNL     1     -25.776  38.611   6.557  0.00  0.00    +0.000 A 
ATOM     11  O2  UNL     1     -25.165  38.069   5.509  0.00  0.00    +0.000 OA
ENDROOT
BRANCH   1  17
ATOM     12  C1  UNL     1     -23.192  36.545   3.753  0.00  0.00    +0.000 A 
ATOM     13  C2  UNL     1     -22.641  35.909   2.636  0.00  0.00    +0.000 A 
ATOM     14  C3  UNL     1     -22.442  36.619   1.447  0.00  0.00    +0.000 A 
ATOM     15  C4  UNL     1     -22.796  37.966   1.380  0.00  0.00    +0.000 A 
ATOM     16  C5  UNL     1     -23.347  38.607   2.493  0.00  0.00    +0.000 A 
ATOM     17  C6  UNL     1     -23.557  37.909   3.701  0.00  0.00    +0.000 A 
BRANCH  14  18
ATOM     18  O5  UNL     1     -21.893  35.995   0.329  0.00  0.00    +0.000 OA
ATOM     19  H10 UNL     1     -21.511  36.530  -0.442  0.00  0.00    +0.000 HD
ENDBRANCH  14  18
ENDBRANCH   1  17
BRANCH   8  20
ATOM     20  O3  UNL     1     -28.555  37.722   8.812  0.00  0.00    +0.000 OA
ATOM     21  H8  UNL     1     -29.231  37.227   8.243  0.00  0.00    +0.000 HD
ENDBRANCH   8  20
BRANCH   6  22
ATOM     22  O4  UNL     1     -25.775  41.629   8.809  0.00  0.00    +0.000 OA
ATOM     23  H9  UNL     1     -26.361  42.127   9.458  0.00  0.00    +0.000 HD
ENDBRANCH   6  22
TORSDOF 4
ENDMDL
MODEL 3
REMARK VINA RESULT:      -2.5      3.059      4.361
REMARK  Name = .\Apigenin.pdb
REMARK  4 active torsions:
REMARK  status: ('A' for Active; 'I' for Inactive)
REMARK    1  A    between atoms: C3_3  and  O5_20
REMARK    2  A    between atoms: C6_6  and  C7_7
REMARK    3  A    between atoms: C11_12  and  O4_19
REMARK    4  A    between atoms: C13_14  and  O3_18
REMARK                            x       y       z     vdW  Elec       q    Type
REMARK                         _______ _______ _______ _____ _____    ______ ____
ROOT
ATOM      1  C7  UNL     1     -25.013  39.203   5.815  0.00  0.00    +0.000 A 
ATOM      2  C8  UNL     1     -26.201  38.576   6.223  0.00  0.00    +0.000 A 
ATOM      3  C9  UNL     1     -26.768  37.576   5.431  0.00  0.00    +0.000 A 
ATOM      4  O1  UNL     1     -27.832  37.041   5.833  0.00  0.00    +0.000 OA
ATOM      5  C10 UNL     1     -26.145  37.197   4.217  0.00  0.00    +0.000 A 
ATOM      6  C11 UNL     1     -26.628  36.190   3.322  0.00  0.00    +0.000 A 
ATOM      7  C12 UNL     1     -25.915  35.911   2.150  0.00  0.00    +0.000 A 
ATOM      8  C13 UNL     1     -24.739  36.596   1.837  0.00  0.00    +0.000 A 
ATOM      9  C14 UNL     1     -24.261  37.577   2.701  0.00  0.00    +0.000 A 
ATOM     10  C15 UNL     1     -24.948  37.881   3.878  0.00  0.00    +0.000 A 
ATOM     11  O2  UNL     1     -24.452  38.825   4.671  0.00  0.00    +0.000 OA
ENDROOT
BRANCH   1  17
ATOM     12  C1  UNL     1     -25.051  41.348   7.203  0.00  0.00    +0.000 A 
ATOM     13  C2  UNL     1     -24.378  42.332   7.935  0.00  0.00    +0.000 A 
ATOM     14  C3  UNL     1     -22.989  42.272   8.087  0.00  0.00    +0.000 A 
ATOM     15  C4  UNL     1     -22.276  41.225   7.505  0.00  0.00    +0.000 A 
ATOM     16  C5  UNL     1     -22.942  40.239   6.773  0.00  0.00    +0.000 A 
ATOM     17  C6  UNL     1     -24.343  40.280   6.608  0.00  0.00    +0.000 A 
BRANCH  14  18
ATOM     18  O5  UNL     1     -22.310  43.248   8.813  0.00  0.00    +0.000 OA
ATOM     19  H10 UNL     1     -21.616  43.844   8.378  0.00  0.00    +0.000 HD
ENDBRANCH  14  18
ENDBRANCH   1  17
BRANCH   8  20
ATOM     20  O3  UNL     1     -24.038  36.309   0.668  0.00  0.00    +0.000 OA
ATOM     21  H8  UNL     1     -23.254  35.667   0.663  0.00  0.00    +0.000 HD
ENDBRANCH   8  20
BRANCH   6  22
ATOM     22  O4  UNL     1     -27.790  35.437   3.524  0.00  0.00    +0.000 OA
ATOM     23  H9  UNL     1     -28.348  35.412   4.361  0.00  0.00    +0.000 HD
ENDBRANCH   6  22
TORSDOF 4
ENDMDL
MODEL 4
REMARK VINA RESULT:      -2.3      0.961      1.059
REMARK  Name = .\Apigenin.pdb
REMARK  4 active torsions:
REMARK  status: ('A' for Active; 'I' for Inactive)
REMARK    1  A    between atoms: C3_3  and  O5_20
REMARK    2  A    between atoms: C6_6  and  C7_7
REMARK    3  A    between atoms: C11_12  and  O4_19
REMARK    4  A    between atoms: C13_14  and  O3_18
REMARK                            x       y       z     vdW  Elec       q    Type
REMARK                         _______ _______ _______ _____ _____    ______ ____
ROOT
ATOM      1  C7  UNL     1     -25.782  40.338   5.170  0.00  0.00    +0.000 A 
ATOM      2  C8  UNL     1     -25.603  40.343   3.778  0.00  0.00    +0.000 A 
ATOM      3  C9  UNL     1     -24.847  39.340   3.169  0.00  0.00    +0.000 A 
ATOM      4  O1  UNL     1     -24.712  39.383   1.920  0.00  0.00    +0.000 OA
ATOM      5  C10 UNL     1     -24.259  38.321   3.957  0.00  0.00    +0.000 A 
ATOM      6  C11 UNL     1     -23.465  37.243   3.451  0.00  0.00    +0.000 A 
ATOM      7  C12 UNL     1     -22.941  36.297   4.341  0.00  0.00    +0.000 A 
ATOM      8  C13 UNL     1     -23.180  36.384   5.714  0.00  0.00    +0.000 A 
ATOM      9  C14 UNL     1     -23.951  37.429   6.216  0.00  0.00    +0.000 A 
ATOM     10  C15 UNL     1     -24.488  38.389   5.357  0.00  0.00    +0.000 A 
ATOM     11  O2  UNL     1     -25.218  39.367   5.883  0.00  0.00    +0.000 OA
ENDROOT
BRANCH   1  17
ATOM     12  C1  UNL     1     -27.358  42.349   5.233  0.00  0.00    +0.000 A 
ATOM     13  C2  UNL     1     -28.085  43.298   5.958  0.00  0.00    +0.000 A 
ATOM     14  C3  UNL     1     -28.050  43.297   7.356  0.00  0.00    +0.000 A 
ATOM     15  C4  UNL     1     -27.284  42.343   8.027  0.00  0.00    +0.000 A 
ATOM     16  C5  UNL     1     -26.556  41.392   7.308  0.00  0.00    +0.000 A 
ATOM     17  C6  UNL     1     -26.578  41.375   5.897  0.00  0.00    +0.000 A 
BRANCH  14  18
ATOM     18  O5  UNL     1     -28.771  44.239   8.087  0.00  0.00    +0.000 OA
ATOM     19  H10 UNL     1     -29.169  45.060   7.646  0.00  0.00    +0.000 HD
ENDBRANCH  14  18
ENDBRANCH   1  17
BRANCH   8  20
ATOM     20  O3  UNL     1     -22.653  35.437   6.589  0.00  0.00    +0.000 OA
ATOM     21  H8  UNL     1     -21.795  34.941   6.380  0.00  0.00    +0.000 HD
ENDBRANCH   8  20
BRANCH   6  22
ATOM     22  O4  UNL     1     -23.157  37.048   2.100  0.00  0.00    +0.000 OA
ATOM     23  H9  UNL     1     -23.163  37.749   1.379  0.00  0.00    +0.000 HD
ENDBRANCH   6  22
TORSDOF 4
ENDMDL
MODEL 5
REMARK VINA RESULT:      -1.9      1.879      7.226
REMARK  Name = .\Apigenin.pdb
REMARK  4 active torsions:
REMARK  status: ('A' for Active; 'I' for Inactive)
REMARK    1  A    between atoms: C3_3  and  O5_20
REMARK    2  A    between atoms: C6_6  and  C7_7
REMARK    3  A    between atoms: C11_12  and  O4_19
REMARK    4  A    between atoms: C13_14  and  O3_18
REMARK                            x       y       z     vdW  Elec       q    Type
REMARK                         _______ _______ _______ _____ _____    ______ ____
ROOT
ATOM      1  C7  UNL     1     -25.185  39.056   5.676  0.00  0.00    +0.000 A 
ATOM      2  C8  UNL     1     -25.657  38.810   6.975  0.00  0.00    +0.000 A 
ATOM      3  C9  UNL     1     -26.436  39.769   7.626  0.00  0.00    +0.000 A 
ATOM      4  O1  UNL     1     -26.838  39.510   8.788  0.00  0.00    +0.000 OA
ATOM      5  C10 UNL     1     -26.746  40.988   6.976  0.00  0.00    +0.000 A 
ATOM      6  C11 UNL     1     -27.532  42.045   7.536  0.00  0.00    +0.000 A 
ATOM      7  C12 UNL     1     -27.765  43.203   6.784  0.00  0.00    +0.000 A 
ATOM      8  C13 UNL     1     -27.247  43.347   5.496  0.00  0.00    +0.000 A 
ATOM      9  C14 UNL     1     -26.482  42.325   4.941  0.00  0.00    +0.000 A 
ATOM     10  C15 UNL     1     -26.229  41.157   5.664  0.00  0.00    +0.000 A 
ATOM     11  O2  UNL     1     -25.494  40.209   5.092  0.00  0.00    +0.000 OA
ENDROOT
BRANCH   1  17
ATOM     12  C1  UNL     1     -24.135  36.750   5.341  0.00  0.00    +0.000 A 
ATOM     13  C2  UNL     1     -23.342  35.876   4.590  0.00  0.00    +0.000 A 
ATOM     14  C3  UNL     1     -22.748  36.306   3.400  0.00  0.00    +0.000 A 
ATOM     15  C4  UNL     1     -22.948  37.616   2.964  0.00  0.00    +0.000 A 
ATOM     16  C5  UNL     1     -23.738  38.495   3.709  0.00  0.00    +0.000 A 
ATOM     17  C6  UNL     1     -24.348  38.080   4.912  0.00  0.00    +0.000 A 
BRANCH  14  18
ATOM     18  O5  UNL     1     -21.957  35.443   2.646  0.00  0.00    +0.000 OA
ATOM     19  H10 UNL     1     -21.062  35.736   2.270  0.00  0.00    +0.000 HD
ENDBRANCH  14  18
ENDBRANCH   1  17
BRANCH   8  20
ATOM     20  O3  UNL     1     -27.487  44.504   4.758  0.00  0.00    +0.000 OA
ATOM     21  H8  UNL     1     -28.064  45.253   5.119  0.00  0.00    +0.000 HD
ENDBRANCH   8  20
BRANCH   6  22
ATOM     22  O4  UNL     1     -28.103  42.020   8.813  0.00  0.00    +0.000 OA
ATOM     23  H9  UNL     1     -27.973  41.308   9.512  0.00  0.00    +0.000 HD
ENDBRANCH   6  22
TORSDOF 4
ENDMDL
MODEL 6
REMARK VINA RESULT:      -1.8      1.315      1.509
REMARK  Name = .\Apigenin.pdb
REMARK  4 active torsions:
REMARK  status: ('A' for Active; 'I' for Inactive)
REMARK    1  A    between atoms: C3_3  and  O5_20
REMARK    2  A    between atoms: C6_6  and  C7_7
REMARK    3  A    between atoms: C11_12  and  O4_19
REMARK    4  A    between atoms: C13_14  and  O3_18
REMARK                            x       y       z     vdW  Elec       q    Type
REMARK                         _______ _______ _______ _____ _____    ______ ____
ROOT
ATOM      1  C7  UNL     1     -26.297  40.748   6.143  0.00  0.00    +0.000 A 
ATOM      2  C8  UNL     1     -26.003  40.692   4.772  0.00  0.00    +0.000 A 
ATOM      3  C9  UNL     1     -25.274  39.618   4.259  0.00  0.00    +0.000 A 
ATOM      4  O1  UNL     1     -25.032  39.608   3.026  0.00  0.00    +0.000 OA
ATOM      5  C10 UNL     1     -24.831  38.587   5.123  0.00  0.00    +0.000 A 
ATOM      6  C11 UNL     1     -24.079  37.438   4.718  0.00  0.00    +0.000 A 
ATOM      7  C12 UNL     1     -23.703  36.489   5.676  0.00  0.00    +0.000 A 
ATOM      8  C13 UNL     1     -24.049  36.640   7.020  0.00  0.00    +0.000 A 
ATOM      9  C14 UNL     1     -24.780  37.753   7.424  0.00  0.00    +0.000 A 
ATOM     10  C15 UNL     1     -25.171  38.719   6.495  0.00  0.00    +0.000 A 
ATOM     11  O2  UNL     1     -25.868  39.764   6.929  0.00  0.00    +0.000 OA
ENDROOT
BRANCH   1  17
ATOM     12  C1  UNL     1     -27.640  42.918   6.020  0.00  0.00    +0.000 A 
ATOM     13  C2  UNL     1     -28.357  43.939   6.653  0.00  0.00    +0.000 A 
ATOM     14  C3  UNL     1     -28.523  43.929   8.042  0.00  0.00    +0.000 A 
ATOM     15  C4  UNL     1     -27.969  42.894   8.795  0.00  0.00    +0.000 A 
ATOM     16  C5  UNL     1     -27.251  41.872   8.169  0.00  0.00    +0.000 A 
ATOM     17  C6  UNL     1     -27.073  41.863   6.770  0.00  0.00    +0.000 A 
BRANCH  14  18
ATOM     18  O5  UNL     1     -29.235  44.941   8.681  0.00  0.00    +0.000 OA
ATOM     19  H10 UNL     1     -29.830  45.579   8.163  0.00  0.00    +0.000 HD
ENDBRANCH  14  18
ENDBRANCH   1  17
BRANCH   8  20
ATOM     20  O3  UNL     1     -23.668  35.688   7.963  0.00  0.00    +0.000 OA
ATOM     21  H8  UNL     1     -23.930  34.714   7.870  0.00  0.00    +0.000 HD
ENDBRANCH   8  20
BRANCH   6  22
ATOM     22  O4  UNL     1     -23.674  37.175   3.405  0.00  0.00    +0.000 OA
ATOM     23  H9  UNL     1     -24.113  37.514   2.565  0.00  0.00    +0.000 HD
ENDBRANCH   6  22
TORSDOF 4
ENDMDL
MODEL 7
REMARK VINA RESULT:      -1.6      2.419      6.606
REMARK  Name = .\Apigenin.pdb
REMARK  4 active torsions:
REMARK  status: ('A' for Active; 'I' for Inactive)
REMARK    1  A    between atoms: C3_3  and  O5_20
REMARK    2  A    between atoms: C6_6  and  C7_7
REMARK    3  A    between atoms: C11_12  and  O4_19
REMARK    4  A    between atoms: C13_14  and  O3_18
REMARK                            x       y       z     vdW  Elec       q    Type
REMARK                         _______ _______ _______ _____ _____    ______ ____
ROOT
ATOM      1  C7  UNL     1     -24.430  39.144   4.765  0.00  0.00    +0.000 A 
ATOM      2  C8  UNL     1     -23.253  39.570   5.401  0.00  0.00    +0.000 A 
ATOM      3  C9  UNL     1     -23.325  40.446   6.484  0.00  0.00    +0.000 A 
ATOM      4  O1  UNL     1     -22.248  40.803   7.024  0.00  0.00    +0.000 OA
ATOM      5  C10 UNL     1     -24.585  40.906   6.940  0.00  0.00    +0.000 A 
ATOM      6  C11 UNL     1     -24.788  41.804   8.036  0.00  0.00    +0.000 A 
ATOM      7  C12 UNL     1     -26.091  42.181   8.385  0.00  0.00    +0.000 A 
ATOM      8  C13 UNL     1     -27.197  41.697   7.684  0.00  0.00    +0.000 A 
ATOM      9  C14 UNL     1     -27.010  40.824   6.616  0.00  0.00    +0.000 A 
ATOM     10  C15 UNL     1     -25.725  40.428   6.241  0.00  0.00    +0.000 A 
ATOM     11  O2  UNL     1     -25.598  39.593   5.216  0.00  0.00    +0.000 OA
ENDROOT
BRANCH   1  17
ATOM     12  C1  UNL     1     -25.573  37.450   3.230  0.00  0.00    +0.000 A 
ATOM     13  C2  UNL     1     -25.529  36.586   2.132  0.00  0.00    +0.000 A 
ATOM     14  C3  UNL     1     -24.356  36.457   1.380  0.00  0.00    +0.000 A 
ATOM     15  C4  UNL     1     -23.227  37.196   1.733  0.00  0.00    +0.000 A 
ATOM     16  C5  UNL     1     -23.264  38.061   2.829  0.00  0.00    +0.000 A 
ATOM     17  C6  UNL     1     -24.438  38.206   3.599  0.00  0.00    +0.000 A 
BRANCH  14  18
ATOM     18  O5  UNL     1     -24.303  35.598   0.285  0.00  0.00    +0.000 OA
ATOM     19  H10 UNL     1     -25.146  35.267  -0.170  0.00  0.00    +0.000 HD
ENDBRANCH  14  18
ENDBRANCH   1  17
BRANCH   8  20
ATOM     20  O3  UNL     1     -28.488  42.080   8.042  0.00  0.00    +0.000 OA
ATOM     21  H8  UNL     1     -29.296  41.523   7.791  0.00  0.00    +0.000 HD
ENDBRANCH   8  20
BRANCH   6  22
ATOM     22  O4  UNL     1     -23.763  42.354   8.814  0.00  0.00    +0.000 OA
ATOM     23  H9  UNL     1     -22.986  41.858   9.216  0.00  0.00    +0.000 HD
ENDBRANCH   6  22
TORSDOF 4
ENDMDL
MODEL 8
REMARK VINA RESULT:      -1.4      1.929      7.233
REMARK  Name = .\Apigenin.pdb
REMARK  4 active torsions:
REMARK  status: ('A' for Active; 'I' for Inactive)
REMARK    1  A    between atoms: C3_3  and  O5_20
REMARK    2  A    between atoms: C6_6  and  C7_7
REMARK    3  A    between atoms: C11_12  and  O4_19
REMARK    4  A    between atoms: C13_14  and  O3_18
REMARK                            x       y       z     vdW  Elec       q    Type
REMARK                         _______ _______ _______ _____ _____    ______ ____
ROOT
ATOM      1  C7  UNL     1     -25.647  39.727   7.075  0.00  0.00    +0.000 A 
ATOM      2  C8  UNL     1     -26.667  39.895   8.025  0.00  0.00    +0.000 A 
ATOM      3  C9  UNL     1     -27.530  40.988   7.934  0.00  0.00    +0.000 A 
ATOM      4  O1  UNL     1     -28.429  41.102   8.805  0.00  0.00    +0.000 OA
ATOM      5  C10 UNL     1     -27.375  41.926   6.884  0.00  0.00    +0.000 A 
ATOM      6  C11 UNL     1     -28.194  43.084   6.685  0.00  0.00    +0.000 A 
ATOM      7  C12 UNL     1     -27.933  43.933   5.603  0.00  0.00    +0.000 A 
ATOM      8  C13 UNL     1     -26.889  43.673   4.713  0.00  0.00    +0.000 A 
ATOM      9  C14 UNL     1     -26.087  42.551   4.898  0.00  0.00    +0.000 A 
ATOM     10  C15 UNL     1     -26.319  41.683   5.967  0.00  0.00    +0.000 A 
ATOM     11  O2  UNL     1     -25.527  40.624   6.102  0.00  0.00    +0.000 OA
ENDROOT
BRANCH   1  17
ATOM     12  C1  UNL     1     -24.954  37.368   7.773  0.00  0.00    +0.000 A 
ATOM     13  C2  UNL     1     -24.019  36.328   7.770  0.00  0.00    +0.000 A 
ATOM     14  C3  UNL     1     -22.799  36.476   7.102  0.00  0.00    +0.000 A 
ATOM     15  C4  UNL     1     -22.517  37.670   6.438  0.00  0.00    +0.000 A 
ATOM     16  C5  UNL     1     -23.447  38.713   6.437  0.00  0.00    +0.000 A 
ATOM     17  C6  UNL     1     -24.683  38.583   7.104  0.00  0.00    +0.000 A 
BRANCH  14  18
ATOM     18  O5  UNL     1     -21.862  35.446   7.095  0.00  0.00    +0.000 OA
ATOM     19  H10 UNL     1     -22.112  34.500   7.360  0.00  0.00    +0.000 HD
ENDBRANCH  14  18
ENDBRANCH   1  17
BRANCH   8  20
ATOM     20  O3  UNL     1     -26.640  44.527   3.640  0.00  0.00    +0.000 OA
ATOM     21  H8  UNL     1     -26.572  45.530   3.765  0.00  0.00    +0.000 HD
ENDBRANCH   8  20
BRANCH   6  22
ATOM     22  O4  UNL     1     -29.266  43.450   7.505  0.00  0.00    +0.000 OA
ATOM     23  H9  UNL     1     -30.236  43.227   7.356  0.00  0.00    +0.000 HD
ENDBRANCH   6  22
TORSDOF 4
ENDMDL
