MODEL 1
REMARK VINA RESULT:      -4.2      0.000      0.000
REMARK  Name = .\Apigenin.pdb
REMARK  4 active torsions:
REMARK  status: ('A' for Active; 'I' for Inactive)
REMARK    1  A    between atoms: C3_3  and  O5_20
REMARK    2  A    between atoms: C6_6  and  C7_7
REMARK    3  A    between atoms: C11_12  and  O4_19
REMARK    4  A    between atoms: C13_14  and  O3_18
REMARK                            x       y       z     vdW  Elec       q    Type
REMARK                         _______ _______ _______ _____ _____    ______ ____
ROOT
ATOM      1  C7  UNL     1      10.387  57.486  -0.535  0.00  0.00    +0.000 A 
ATOM      2  C8  UNL     1      10.320  58.787  -0.012  0.00  0.00    +0.000 A 
ATOM      3  C9  UNL     1      11.071  59.123   1.115  0.00  0.00    +0.000 A 
ATOM      4  O1  UNL     1      10.982  60.299   1.552  0.00  0.00    +0.000 OA
ATOM      5  C10 UNL     1      11.898  58.152   1.730  0.00  0.00    +0.000 A 
ATOM      6  C11 UNL     1      12.713  58.375   2.886  0.00  0.00    +0.000 A 
ATOM      7  C12 UNL     1      13.487  57.325   3.396  0.00  0.00    +0.000 A 
ATOM      8  C13 UNL     1      13.482  56.064   2.796  0.00  0.00    +0.000 A 
ATOM      9  C14 UNL     1      12.693  55.837   1.672  0.00  0.00    +0.000 A 
ATOM     10  C15 UNL     1      11.909  56.861   1.138  0.00  0.00    +0.000 A 
ATOM     11  O2  UNL     1      11.173  56.596   0.064  0.00  0.00    +0.000 OA
ENDROOT
BRANCH   1  17
ATOM     12  C1  UNL     1       9.668  57.730  -2.975  0.00  0.00    +0.000 A 
ATOM     13  C2  UNL     1       8.927  57.280  -4.072  0.00  0.00    +0.000 A 
ATOM     14  C3  UNL     1       8.119  56.144  -3.961  0.00  0.00    +0.000 A 
ATOM     15  C4  UNL     1       8.056  55.459  -2.747  0.00  0.00    +0.000 A 
ATOM     16  C5  UNL     1       8.794  55.904  -1.647  0.00  0.00    +0.000 A 
ATOM     17  C6  UNL     1       9.615  57.047  -1.739  0.00  0.00    +0.000 A 
BRANCH  14  18
ATOM     18  O5  UNL     1       7.376  55.688  -5.047  0.00  0.00    +0.000 OA
ATOM     19  H10 UNL     1       6.613  56.233  -5.433  0.00  0.00    +0.000 HD
ENDBRANCH  14  18
ENDBRANCH   1  17
BRANCH   8  20
ATOM     20  O3  UNL     1      14.257  55.029   3.313  0.00  0.00    +0.000 OA
ATOM     21  H8  UNL     1      14.348  54.881   4.311  0.00  0.00    +0.000 HD
ENDBRANCH   8  20
BRANCH   6  22
ATOM     22  O4  UNL     1      12.803  59.591   3.573  0.00  0.00    +0.000 OA
ATOM     23  H9  UNL     1      13.205  60.445   3.226  0.00  0.00    +0.000 HD
ENDBRANCH   6  22
TORSDOF 4
ENDMDL
MODEL 2
REMARK VINA RESULT:      -3.4      2.164      6.816
REMARK  Name = .\Apigenin.pdb
REMARK  4 active torsions:
REMARK  status: ('A' for Active; 'I' for Inactive)
REMARK    1  A    between atoms: C3_3  and  O5_20
REMARK    2  A    between atoms: C6_6  and  C7_7
REMARK    3  A    between atoms: C11_12  and  O4_19
REMARK    4  A    between atoms: C13_14  and  O3_18
REMARK                            x       y       z     vdW  Elec       q    Type
REMARK                         _______ _______ _______ _____ _____    ______ ____
ROOT
ATOM      1  C7  UNL     1      11.145  58.317  -0.976  0.00  0.00    +0.000 A 
ATOM      2  C8  UNL     1       9.915  58.827  -1.423  0.00  0.00    +0.000 A 
ATOM      3  C9  UNL     1       9.299  58.273  -2.547  0.00  0.00    +0.000 A 
ATOM      4  O1  UNL     1       8.199  58.759  -2.913  0.00  0.00    +0.000 OA
ATOM      5  C10 UNL     1       9.916  57.201  -3.235  0.00  0.00    +0.000 A 
ATOM      6  C11 UNL     1       9.386  56.552  -4.396  0.00  0.00    +0.000 A 
ATOM      7  C12 UNL     1      10.099  55.499  -4.983  0.00  0.00    +0.000 A 
ATOM      8  C13 UNL     1      11.318  55.068  -4.456  0.00  0.00    +0.000 A 
ATOM      9  C14 UNL     1      11.842  55.693  -3.328  0.00  0.00    +0.000 A 
ATOM     10  C15 UNL     1      11.158  56.746  -2.718  0.00  0.00    +0.000 A 
ATOM     11  O2  UNL     1      11.699  57.310  -1.644  0.00  0.00    +0.000 OA
ENDROOT
BRANCH   1  17
ATOM     12  C1  UNL     1      12.839  58.111   0.925  0.00  0.00    +0.000 A 
ATOM     13  C2  UNL     1      13.487  58.658   2.038  0.00  0.00    +0.000 A 
ATOM     14  C3  UNL     1      13.180  59.953   2.468  0.00  0.00    +0.000 A 
ATOM     15  C4  UNL     1      12.222  60.699   1.781  0.00  0.00    +0.000 A 
ATOM     16  C5  UNL     1      11.572  60.158   0.669  0.00  0.00    +0.000 A 
ATOM     17  C6  UNL     1      11.867  58.854   0.219  0.00  0.00    +0.000 A 
BRANCH  14  18
ATOM     18  O5  UNL     1      13.820  60.505   3.575  0.00  0.00    +0.000 OA
ATOM     19  H10 UNL     1      13.331  61.118   4.218  0.00  0.00    +0.000 HD
ENDBRANCH  14  18
ENDBRANCH   1  17
BRANCH   8  20
ATOM     20  O3  UNL     1      12.017  54.020  -5.049  0.00  0.00    +0.000 OA
ATOM     21  H8  UNL     1      13.014  54.075  -5.220  0.00  0.00    +0.000 HD
ENDBRANCH   8  20
BRANCH   6  22
ATOM     22  O4  UNL     1       8.177  56.891  -5.014  0.00  0.00    +0.000 OA
ATOM     23  H9  UNL     1       7.825  57.821  -5.168  0.00  0.00    +0.000 HD
ENDBRANCH   6  22
TORSDOF 4
ENDMDL
MODEL 3
REMARK VINA RESULT:      -3.1      2.460      6.936
REMARK  Name = .\Apigenin.pdb
REMARK  4 active torsions:
REMARK  status: ('A' for Active; 'I' for Inactive)
REMARK    1  A    between atoms: C3_3  and  O5_20
REMARK    2  A    between atoms: C6_6  and  C7_7
REMARK    3  A    between atoms: C11_12  and  O4_19
REMARK    4  A    between atoms: C13_14  and  O3_18
REMARK                            x       y       z     vdW  Elec       q    Type
REMARK                         _______ _______ _______ _____ _____    ______ ____
ROOT
ATOM      1  C7  UNL     1      12.349  58.038  -0.511  0.00  0.00    +0.000 A 
ATOM      2  C8  UNL     1      13.255  57.413  -1.382  0.00  0.00    +0.000 A 
ATOM      3  C9  UNL     1      12.790  56.508  -2.338  0.00  0.00    +0.000 A 
ATOM      4  O1  UNL     1      13.635  55.969  -3.097  0.00  0.00    +0.000 OA
ATOM      5  C10 UNL     1      11.406  56.221  -2.426  0.00  0.00    +0.000 A 
ATOM      6  C11 UNL     1      10.810  55.314  -3.360  0.00  0.00    +0.000 A 
ATOM      7  C12 UNL     1       9.423  55.121  -3.342  0.00  0.00    +0.000 A 
ATOM      8  C13 UNL     1       8.609  55.797  -2.431  0.00  0.00    +0.000 A 
ATOM      9  C14 UNL     1       9.179  56.680  -1.519  0.00  0.00    +0.000 A 
ATOM     10  C15 UNL     1      10.559  56.896  -1.509  0.00  0.00    +0.000 A 
ATOM     11  O2  UNL     1      11.056  57.749  -0.619  0.00  0.00    +0.000 OA
ENDROOT
BRANCH   1  17
ATOM     12  C1  UNL     1      14.031  58.976   1.169  0.00  0.00    +0.000 A 
ATOM     13  C2  UNL     1      14.374  59.917   2.145  0.00  0.00    +0.000 A 
ATOM     14  C3  UNL     1      13.469  60.918   2.511  0.00  0.00    +0.000 A 
ATOM     15  C4  UNL     1      12.217  60.974   1.897  0.00  0.00    +0.000 A 
ATOM     16  C5  UNL     1      11.868  60.037   0.922  0.00  0.00    +0.000 A 
ATOM     17  C6  UNL     1      12.767  59.020   0.538  0.00  0.00    +0.000 A 
BRANCH  14  18
ATOM     18  O5  UNL     1      13.802  61.859   3.482  0.00  0.00    +0.000 OA
ATOM     19  H10 UNL     1      13.138  62.144   4.193  0.00  0.00    +0.000 HD
ENDBRANCH  14  18
ENDBRANCH   1  17
BRANCH   8  20
ATOM     20  O3  UNL     1       7.231  55.595  -2.423  0.00  0.00    +0.000 OA
ATOM     21  H8  UNL     1       6.603  56.237  -1.956  0.00  0.00    +0.000 HD
ENDBRANCH   8  20
BRANCH   6  22
ATOM     22  O4  UNL     1      11.517  54.581  -4.319  0.00  0.00    +0.000 OA
ATOM     23  H9  UNL     1      12.062  53.752  -4.155  0.00  0.00    +0.000 HD
ENDBRANCH   6  22
TORSDOF 4
ENDMDL
MODEL 4
REMARK VINA RESULT:      -3.0      2.629      7.011
REMARK  Name = .\Apigenin.pdb
REMARK  4 active torsions:
REMARK  status: ('A' for Active; 'I' for Inactive)
REMARK    1  A    between atoms: C3_3  and  O5_20
REMARK    2  A    between atoms: C6_6  and  C7_7
REMARK    3  A    between atoms: C11_12  and  O4_19
REMARK    4  A    between atoms: C13_14  and  O3_18
REMARK                            x       y       z     vdW  Elec       q    Type
REMARK                         _______ _______ _______ _____ _____    ______ ____
ROOT
ATOM      1  C7  UNL     1      11.182  55.698  -0.843  0.00  0.00    +0.000 A 
ATOM      2  C8  UNL     1      10.051  55.020  -1.323  0.00  0.00    +0.000 A 
ATOM      3  C9  UNL     1       9.354  55.522  -2.424  0.00  0.00    +0.000 A 
ATOM      4  O1  UNL     1       8.346  54.884  -2.822  0.00  0.00    +0.000 OA
ATOM      5  C10 UNL     1       9.787  56.714  -3.052  0.00  0.00    +0.000 A 
ATOM      6  C11 UNL     1       9.158  57.327  -4.183  0.00  0.00    +0.000 A 
ATOM      7  C12 UNL     1       9.690  58.510  -4.710  0.00  0.00    +0.000 A 
ATOM      8  C13 UNL     1      10.825  59.105  -4.154  0.00  0.00    +0.000 A 
ATOM      9  C14 UNL     1      11.444  58.517  -3.054  0.00  0.00    +0.000 A 
ATOM     10  C15 UNL     1      10.939  57.338  -2.503  0.00  0.00    +0.000 A 
ATOM     11  O2  UNL     1      11.565  56.815  -1.454  0.00  0.00    +0.000 OA
ENDROOT
BRANCH   1  17
ATOM     12  C1  UNL     1      11.447  54.397   1.341  0.00  0.00    +0.000 A 
ATOM     13  C2  UNL     1      12.238  53.981   2.417  0.00  0.00    +0.000 A 
ATOM     14  C3  UNL     1      13.575  54.381   2.507  0.00  0.00    +0.000 A 
ATOM     15  C4  UNL     1      14.118  55.199   1.516  0.00  0.00    +0.000 A 
ATOM     16  C5  UNL     1      13.334  55.618   0.439  0.00  0.00    +0.000 A 
ATOM     17  C6  UNL     1      11.983  55.225   0.329  0.00  0.00    +0.000 A 
BRANCH  14  18
ATOM     18  O5  UNL     1      14.370  53.973   3.575  0.00  0.00    +0.000 OA
ATOM     19  H10 UNL     1      14.159  53.132   4.101  0.00  0.00    +0.000 HD
ENDBRANCH  14  18
ENDBRANCH   1  17
BRANCH   8  20
ATOM     20  O3  UNL     1      11.344  60.282  -4.688  0.00  0.00    +0.000 OA
ATOM     21  H8  UNL     1      11.956  60.274  -5.495  0.00  0.00    +0.000 HD
ENDBRANCH   8  20
BRANCH   6  22
ATOM     22  O4  UNL     1       8.020  56.828  -4.826  0.00  0.00    +0.000 OA
ATOM     23  H9  UNL     1       7.179  57.339  -5.034  0.00  0.00    +0.000 HD
ENDBRANCH   6  22
TORSDOF 4
ENDMDL
MODEL 5
REMARK VINA RESULT:      -2.8      1.383      2.908
REMARK  Name = .\Apigenin.pdb
REMARK  4 active torsions:
REMARK  status: ('A' for Active; 'I' for Inactive)
REMARK    1  A    between atoms: C3_3  and  O5_20
REMARK    2  A    between atoms: C6_6  and  C7_7
REMARK    3  A    between atoms: C11_12  and  O4_19
REMARK    4  A    between atoms: C13_14  and  O3_18
REMARK                            x       y       z     vdW  Elec       q    Type
REMARK                         _______ _______ _______ _____ _____    ______ ____
ROOT
ATOM      1  C7  UNL     1      10.446  57.118  -0.952  0.00  0.00    +0.000 A 
ATOM      2  C8  UNL     1      11.266  56.180  -0.306  0.00  0.00    +0.000 A 
ATOM      3  C9  UNL     1      12.127  56.592   0.712  0.00  0.00    +0.000 A 
ATOM      4  O1  UNL     1      12.845  55.720   1.264  0.00  0.00    +0.000 OA
ATOM      5  C10 UNL     1      12.173  57.955   1.091  0.00  0.00    +0.000 A 
ATOM      6  C11 UNL     1      13.012  58.499   2.116  0.00  0.00    +0.000 A 
ATOM      7  C12 UNL     1      12.960  59.871   2.393  0.00  0.00    +0.000 A 
ATOM      8  C13 UNL     1      12.104  60.720   1.688  0.00  0.00    +0.000 A 
ATOM      9  C14 UNL     1      11.285  60.201   0.690  0.00  0.00    +0.000 A 
ATOM     10  C15 UNL     1      11.312  58.839   0.388  0.00  0.00    +0.000 A 
ATOM     11  O2  UNL     1      10.511  58.391  -0.574  0.00  0.00    +0.000 OA
ENDROOT
BRANCH   1  17
ATOM     12  C1  UNL     1       9.741  57.063  -3.408  0.00  0.00    +0.000 A 
ATOM     13  C2  UNL     1       8.821  56.703  -4.398  0.00  0.00    +0.000 A 
ATOM     14  C3  UNL     1       7.641  56.033  -4.057  0.00  0.00    +0.000 A 
ATOM     15  C4  UNL     1       7.385  55.724  -2.720  0.00  0.00    +0.000 A 
ATOM     16  C5  UNL     1       8.300  56.081  -1.726  0.00  0.00    +0.000 A 
ATOM     17  C6  UNL     1       9.496  56.756  -2.050  0.00  0.00    +0.000 A 
BRANCH  14  18
ATOM     18  O5  UNL     1       6.719  55.671  -5.036  0.00  0.00    +0.000 OA
ATOM     19  H10 UNL     1       6.640  56.187  -5.905  0.00  0.00    +0.000 HD
ENDBRANCH  14  18
ENDBRANCH   1  17
BRANCH   8  20
ATOM     20  O3  UNL     1      12.063  62.083   1.974  0.00  0.00    +0.000 OA
ATOM     21  H8  UNL     1      11.208  62.619   1.881  0.00  0.00    +0.000 HD
ENDBRANCH   8  20
BRANCH   6  22
ATOM     22  O4  UNL     1      13.908  57.752   2.889  0.00  0.00    +0.000 OA
ATOM     23  H9  UNL     1      14.347  58.046   3.745  0.00  0.00    +0.000 HD
ENDBRANCH   6  22
TORSDOF 4
ENDMDL
