MODEL 1
REMARK VINA RESULT:      -5.7      0.000      0.000
REMARK  Name = .\Apigenin.pdb
REMARK  4 active torsions:
REMARK  status: ('A' for Active; 'I' for Inactive)
REMARK    1  A    between atoms: C3_3  and  O5_20
REMARK    2  A    between atoms: C6_6  and  C7_7
REMARK    3  A    between atoms: C11_12  and  O4_19
REMARK    4  A    between atoms: C13_14  and  O3_18
REMARK                            x       y       z     vdW  Elec       q    Type
REMARK                         _______ _______ _______ _____ _____    ______ ____
ROOT
ATOM      1  C7  UNL     1      -9.075  41.255  14.241  0.00  0.00    +0.000 A 
ATOM      2  C8  UNL     1      -9.681  40.124  14.810  0.00  0.00    +0.000 A 
ATOM      3  C9  UNL     1     -10.401  40.245  16.000  0.00  0.00    +0.000 A 
ATOM      4  O1  UNL     1     -10.928  39.208  16.477  0.00  0.00    +0.000 OA
ATOM      5  C10 UNL     1     -10.516  41.507  16.632  0.00  0.00    +0.000 A 
ATOM      6  C11 UNL     1     -11.224  41.758  17.851  0.00  0.00    +0.000 A 
ATOM      7  C12 UNL     1     -11.261  43.058  18.371  0.00  0.00    +0.000 A 
ATOM      8  C13 UNL     1     -10.621  44.116  17.722  0.00  0.00    +0.000 A 
ATOM      9  C14 UNL     1      -9.930  43.883  16.537  0.00  0.00    +0.000 A 
ATOM     10  C15 UNL     1      -9.872  42.599  15.991  0.00  0.00    +0.000 A 
ATOM     11  O2  UNL     1      -9.201  42.426  14.857  0.00  0.00    +0.000 OA
ENDROOT
BRANCH   1  17
ATOM     12  C1  UNL     1      -6.884  41.356  12.929  0.00  0.00    +0.000 A 
ATOM     13  C2  UNL     1      -6.195  41.305  11.713  0.00  0.00    +0.000 A 
ATOM     14  C3  UNL     1      -6.889  41.107  10.515  0.00  0.00    +0.000 A 
ATOM     15  C4  UNL     1      -8.276  40.960  10.538  0.00  0.00    +0.000 A 
ATOM     16  C5  UNL     1      -8.970  41.010  11.750  0.00  0.00    +0.000 A 
ATOM     17  C6  UNL     1      -8.289  41.208  12.969  0.00  0.00    +0.000 A 
BRANCH  14  18
ATOM     18  O5  UNL     1      -6.211  41.055   9.300  0.00  0.00    +0.000 OA
ATOM     19  H10 UNL     1      -6.204  40.216   8.732  0.00  0.00    +0.000 HD
ENDBRANCH  14  18
ENDBRANCH   1  17
BRANCH   8  20
ATOM     20  O3  UNL     1     -10.666  45.404  18.250  0.00  0.00    +0.000 OA
ATOM     21  H8  UNL     1     -10.206  46.182  17.792  0.00  0.00    +0.000 HD
ENDBRANCH   8  20
BRANCH   6  22
ATOM     22  O4  UNL     1     -11.903  40.784  18.591  0.00  0.00    +0.000 OA
ATOM     23  H9  UNL     1     -12.623  40.169  18.251  0.00  0.00    +0.000 HD
ENDBRANCH   6  22
TORSDOF 4
ENDMDL
MODEL 2
REMARK VINA RESULT:      -5.1      1.453      2.898
REMARK  Name = .\Apigenin.pdb
REMARK  4 active torsions:
REMARK  status: ('A' for Active; 'I' for Inactive)
REMARK    1  A    between atoms: C3_3  and  O5_20
REMARK    2  A    between atoms: C6_6  and  C7_7
REMARK    3  A    between atoms: C11_12  and  O4_19
REMARK    4  A    between atoms: C13_14  and  O3_18
REMARK                            x       y       z     vdW  Elec       q    Type
REMARK                         _______ _______ _______ _____ _____    ______ ____
ROOT
ATOM      1  C7  UNL     1      -9.026  41.255  14.055  0.00  0.00    +0.000 A 
ATOM      2  C8  UNL     1      -9.759  42.382  14.459  0.00  0.00    +0.000 A 
ATOM      3  C9  UNL     1     -10.484  42.351  15.651  0.00  0.00    +0.000 A 
ATOM      4  O1  UNL     1     -11.126  43.381  15.976  0.00  0.00    +0.000 OA
ATOM      5  C10 UNL     1     -10.481  41.182  16.450  0.00  0.00    +0.000 A 
ATOM      6  C11 UNL     1     -11.182  41.027  17.688  0.00  0.00    +0.000 A 
ATOM      7  C12 UNL     1     -11.095  39.814  18.383  0.00  0.00    +0.000 A 
ATOM      8  C13 UNL     1     -10.335  38.751  17.890  0.00  0.00    +0.000 A 
ATOM      9  C14 UNL     1      -9.649  38.891  16.687  0.00  0.00    +0.000 A 
ATOM     10  C15 UNL     1      -9.715  40.087  15.969  0.00  0.00    +0.000 A 
ATOM     11  O2  UNL     1      -9.042  40.173  14.826  0.00  0.00    +0.000 OA
ENDROOT
BRANCH   1  17
ATOM     12  C1  UNL     1      -6.821  41.381  12.769  0.00  0.00    +0.000 A 
ATOM     13  C2  UNL     1      -6.116  41.331  11.562  0.00  0.00    +0.000 A 
ATOM     14  C3  UNL     1      -6.792  41.109  10.358  0.00  0.00    +0.000 A 
ATOM     15  C4  UNL     1      -8.177  40.939  10.365  0.00  0.00    +0.000 A 
ATOM     16  C5  UNL     1      -8.887  40.989  11.567  0.00  0.00    +0.000 A 
ATOM     17  C6  UNL     1      -8.224  41.210  12.793  0.00  0.00    +0.000 A 
BRANCH  14  18
ATOM     18  O5  UNL     1      -6.098  41.058   9.151  0.00  0.00    +0.000 OA
ATOM     19  H10 UNL     1      -5.350  41.709   8.942  0.00  0.00    +0.000 HD
ENDBRANCH  14  18
ENDBRANCH   1  17
BRANCH   8  20
ATOM     20  O3  UNL     1     -10.256  37.550  18.591  0.00  0.00    +0.000 OA
ATOM     21  H8  UNL     1      -9.770  36.745  18.213  0.00  0.00    +0.000 HD
ENDBRANCH   8  20
BRANCH   6  22
ATOM     22  O4  UNL     1     -11.974  42.016  18.283  0.00  0.00    +0.000 OA
ATOM     23  H9  UNL     1     -12.115  42.156  19.269  0.00  0.00    +0.000 HD
ENDBRANCH   6  22
TORSDOF 4
ENDMDL
MODEL 3
REMARK VINA RESULT:      -4.9      1.525      1.546
REMARK  Name = .\Apigenin.pdb
REMARK  4 active torsions:
REMARK  status: ('A' for Active; 'I' for Inactive)
REMARK    1  A    between atoms: C3_3  and  O5_20
REMARK    2  A    between atoms: C6_6  and  C7_7
REMARK    3  A    between atoms: C11_12  and  O4_19
REMARK    4  A    between atoms: C13_14  and  O3_18
REMARK                            x       y       z     vdW  Elec       q    Type
REMARK                         _______ _______ _______ _____ _____    ______ ____
ROOT
ATOM      1  C7  UNL     1      -9.171  41.293  13.924  0.00  0.00    +0.000 A 
ATOM      2  C8  UNL     1      -8.945  40.494  15.056  0.00  0.00    +0.000 A 
ATOM      3  C9  UNL     1      -9.772  40.621  16.173  0.00  0.00    +0.000 A 
ATOM      4  O1  UNL     1      -9.535  39.887  17.166  0.00  0.00    +0.000 OA
ATOM      5  C10 UNL     1     -10.836  41.555  16.164  0.00  0.00    +0.000 A 
ATOM      6  C11 UNL     1     -11.749  41.777  17.244  0.00  0.00    +0.000 A 
ATOM      7  C12 UNL     1     -12.761  42.735  17.105  0.00  0.00    +0.000 A 
ATOM      8  C13 UNL     1     -12.898  43.478  15.931  0.00  0.00    +0.000 A 
ATOM      9  C14 UNL     1     -12.016  43.270  14.875  0.00  0.00    +0.000 A 
ATOM     10  C15 UNL     1     -10.995  42.324  14.980  0.00  0.00    +0.000 A 
ATOM     11  O2  UNL     1     -10.178  42.161  13.945  0.00  0.00    +0.000 OA
ENDROOT
BRANCH   1  17
ATOM     12  C1  UNL     1      -6.935  41.436  12.694  0.00  0.00    +0.000 A 
ATOM     13  C2  UNL     1      -6.194  41.354  11.511  0.00  0.00    +0.000 A 
ATOM     14  C3  UNL     1      -6.827  41.053  10.301  0.00  0.00    +0.000 A 
ATOM     15  C4  UNL     1      -8.205  40.834  10.278  0.00  0.00    +0.000 A 
ATOM     16  C5  UNL     1      -8.951  40.915  11.457  0.00  0.00    +0.000 A 
ATOM     17  C6  UNL     1      -8.331  41.217  12.688  0.00  0.00    +0.000 A 
BRANCH  14  18
ATOM     18  O5  UNL     1      -6.097  40.969   9.117  0.00  0.00    +0.000 OA
ATOM     19  H10 UNL     1      -5.950  41.780   8.527  0.00  0.00    +0.000 HD
ENDBRANCH  14  18
ENDBRANCH   1  17
BRANCH   8  20
ATOM     20  O3  UNL     1     -13.909  44.428  15.806  0.00  0.00    +0.000 OA
ATOM     21  H8  UNL     1     -13.741  45.330  15.376  0.00  0.00    +0.000 HD
ENDBRANCH   8  20
BRANCH   6  22
ATOM     22  O4  UNL     1     -11.714  41.096  18.466  0.00  0.00    +0.000 OA
ATOM     23  H9  UNL     1     -11.127  40.313  18.698  0.00  0.00    +0.000 HD
ENDBRANCH   6  22
TORSDOF 4
ENDMDL
MODEL 4
REMARK VINA RESULT:      -4.9      1.386      1.464
REMARK  Name = .\Apigenin.pdb
REMARK  4 active torsions:
REMARK  status: ('A' for Active; 'I' for Inactive)
REMARK    1  A    between atoms: C3_3  and  O5_20
REMARK    2  A    between atoms: C6_6  and  C7_7
REMARK    3  A    between atoms: C11_12  and  O4_19
REMARK    4  A    between atoms: C13_14  and  O3_18
REMARK                            x       y       z     vdW  Elec       q    Type
REMARK                         _______ _______ _______ _____ _____    ______ ____
ROOT
ATOM      1  C7  UNL     1     -10.190  41.227  14.622  0.00  0.00    +0.000 A 
ATOM      2  C8  UNL     1     -10.683  40.073  15.251  0.00  0.00    +0.000 A 
ATOM      3  C9  UNL     1     -11.584  40.188  16.311  0.00  0.00    +0.000 A 
ATOM      4  O1  UNL     1     -12.000  39.130  16.846  0.00  0.00    +0.000 OA
ATOM      5  C10 UNL     1     -11.998  41.469  16.751  0.00  0.00    +0.000 A 
ATOM      6  C11 UNL     1     -12.913  41.716  17.824  0.00  0.00    +0.000 A 
ATOM      7  C12 UNL     1     -13.241  43.036  18.159  0.00  0.00    +0.000 A 
ATOM      8  C13 UNL     1     -12.692  44.117  17.466  0.00  0.00    +0.000 A 
ATOM      9  C14 UNL     1     -11.801  43.887  16.422  0.00  0.00    +0.000 A 
ATOM     10  C15 UNL     1     -11.452  42.584  16.061  0.00  0.00    +0.000 A 
ATOM     11  O2  UNL     1     -10.598  42.415  15.058  0.00  0.00    +0.000 OA
ENDROOT
BRANCH   1  17
ATOM     12  C1  UNL     1      -7.842  40.948  13.652  0.00  0.00    +0.000 A 
ATOM     13  C2  UNL     1      -6.980  40.921  12.552  0.00  0.00    +0.000 A 
ATOM     14  C3  UNL     1      -7.475  41.132  11.261  0.00  0.00    +0.000 A 
ATOM     15  C4  UNL     1      -8.837  41.371  11.075  0.00  0.00    +0.000 A 
ATOM     16  C5  UNL     1      -9.704  41.399  12.170  0.00  0.00    +0.000 A 
ATOM     17  C6  UNL     1      -9.224  41.188  13.480  0.00  0.00    +0.000 A 
BRANCH  14  18
ATOM     18  O5  UNL     1      -6.623  41.109  10.159  0.00  0.00    +0.000 OA
ATOM     19  H10 UNL     1      -6.815  41.658   9.329  0.00  0.00    +0.000 HD
ENDBRANCH  14  18
ENDBRANCH   1  17
BRANCH   8  20
ATOM     20  O3  UNL     1     -13.026  45.424  17.810  0.00  0.00    +0.000 OA
ATOM     21  H8  UNL     1     -12.395  46.011  18.344  0.00  0.00    +0.000 HD
ENDBRANCH   8  20
BRANCH   6  22
ATOM     22  O4  UNL     1     -13.528  40.720  18.590  0.00  0.00    +0.000 OA
ATOM     23  H9  UNL     1     -14.504  40.666  18.828  0.00  0.00    +0.000 HD
ENDBRANCH   6  22
TORSDOF 4
ENDMDL
MODEL 5
REMARK VINA RESULT:      -4.9      1.916      3.419
REMARK  Name = .\Apigenin.pdb
REMARK  4 active torsions:
REMARK  status: ('A' for Active; 'I' for Inactive)
REMARK    1  A    between atoms: C3_3  and  O5_20
REMARK    2  A    between atoms: C6_6  and  C7_7
REMARK    3  A    between atoms: C11_12  and  O4_19
REMARK    4  A    between atoms: C13_14  and  O3_18
REMARK                            x       y       z     vdW  Elec       q    Type
REMARK                         _______ _______ _______ _____ _____    ______ ____
ROOT
ATOM      1  C7  UNL     1     -10.521  41.732  14.621  0.00  0.00    +0.000 A 
ATOM      2  C8  UNL     1     -10.897  43.032  14.994  0.00  0.00    +0.000 A 
ATOM      3  C9  UNL     1     -11.789  43.222  16.051  0.00  0.00    +0.000 A 
ATOM      4  O1  UNL     1     -12.100  44.402  16.353  0.00  0.00    +0.000 OA
ATOM      5  C10 UNL     1     -12.315  42.104  16.743  0.00  0.00    +0.000 A 
ATOM      6  C11 UNL     1     -13.234  42.169  17.838  0.00  0.00    +0.000 A 
ATOM      7  C12 UNL     1     -13.677  40.983  18.437  0.00  0.00    +0.000 A 
ATOM      8  C13 UNL     1     -13.239  39.736  17.986  0.00  0.00    +0.000 A 
ATOM      9  C14 UNL     1     -12.345  39.662  16.921  0.00  0.00    +0.000 A 
ATOM     10  C15 UNL     1     -11.883  40.825  16.301  0.00  0.00    +0.000 A 
ATOM     11  O2  UNL     1     -11.031  40.703  15.289  0.00  0.00    +0.000 OA
ENDROOT
BRANCH   1  17
ATOM     12  C1  UNL     1      -9.939  41.533  12.140  0.00  0.00    +0.000 A 
ATOM     13  C2  UNL     1      -9.013  41.254  11.130  0.00  0.00    +0.000 A 
ATOM     14  C3  UNL     1      -7.704  40.884  11.455  0.00  0.00    +0.000 A 
ATOM     15  C4  UNL     1      -7.325  40.792  12.794  0.00  0.00    +0.000 A 
ATOM     16  C5  UNL     1      -8.246  41.069  13.808  0.00  0.00    +0.000 A 
ATOM     17  C6  UNL     1      -9.570  41.445  13.501  0.00  0.00    +0.000 A 
BRANCH  14  18
ATOM     18  O5  UNL     1      -6.775  40.603  10.455  0.00  0.00    +0.000 OA
ATOM     19  H10 UNL     1      -7.064  40.299   9.533  0.00  0.00    +0.000 HD
ENDBRANCH  14  18
ENDBRANCH   1  17
BRANCH   8  20
ATOM     20  O3  UNL     1     -13.688  38.564  18.590  0.00  0.00    +0.000 OA
ATOM     21  H8  UNL     1     -13.198  37.685  18.472  0.00  0.00    +0.000 HD
ENDBRANCH   8  20
BRANCH   6  22
ATOM     22  O4  UNL     1     -13.744  43.354  18.379  0.00  0.00    +0.000 OA
ATOM     23  H9  UNL     1     -14.015  44.177  17.866  0.00  0.00    +0.000 HD
ENDBRANCH   6  22
TORSDOF 4
ENDMDL
MODEL 6
REMARK VINA RESULT:      -4.7      1.906      2.927
REMARK  Name = .\Apigenin.pdb
REMARK  4 active torsions:
REMARK  status: ('A' for Active; 'I' for Inactive)
REMARK    1  A    between atoms: C3_3  and  O5_20
REMARK    2  A    between atoms: C6_6  and  C7_7
REMARK    3  A    between atoms: C11_12  and  O4_19
REMARK    4  A    between atoms: C13_14  and  O3_18
REMARK                            x       y       z     vdW  Elec       q    Type
REMARK                         _______ _______ _______ _____ _____    ______ ____
ROOT
ATOM      1  C7  UNL     1      -9.337  41.238  13.110  0.00  0.00    +0.000 A 
ATOM      2  C8  UNL     1     -10.458  42.083  13.123  0.00  0.00    +0.000 A 
ATOM      3  C9  UNL     1     -11.271  42.143  14.256  0.00  0.00    +0.000 A 
ATOM      4  O1  UNL     1     -12.266  42.911  14.225  0.00  0.00    +0.000 OA
ATOM      5  C10 UNL     1     -10.965  41.352  15.389  0.00  0.00    +0.000 A 
ATOM      6  C11 UNL     1     -11.719  41.327  16.606  0.00  0.00    +0.000 A 
ATOM      7  C12 UNL     1     -11.306  40.497  17.655  0.00  0.00    +0.000 A 
ATOM      8  C13 UNL     1     -10.170  39.694  17.539  0.00  0.00    +0.000 A 
ATOM      9  C14 UNL     1      -9.430  39.711  16.361  0.00  0.00    +0.000 A 
ATOM     10  C15 UNL     1      -9.814  40.526  15.294  0.00  0.00    +0.000 A 
ATOM     11  O2  UNL     1      -9.075  40.509  14.190  0.00  0.00    +0.000 OA
ENDROOT
BRANCH   1  17
ATOM     12  C1  UNL     1      -8.798  40.504  10.723  0.00  0.00    +0.000 A 
ATOM     13  C2  UNL     1      -7.899  40.415   9.654  0.00  0.00    +0.000 A 
ATOM     14  C3  UNL     1      -6.607  40.936   9.773  0.00  0.00    +0.000 A 
ATOM     15  C4  UNL     1      -6.215  41.545  10.966  0.00  0.00    +0.000 A 
ATOM     16  C5  UNL     1      -7.108  41.636  12.037  0.00  0.00    +0.000 A 
ATOM     17  C6  UNL     1      -8.416  41.118  11.937  0.00  0.00    +0.000 A 
BRANCH  14  18
ATOM     18  O5  UNL     1      -5.705  40.852   8.715  0.00  0.00    +0.000 OA
ATOM     19  H10 UNL     1      -5.077  41.616   8.492  0.00  0.00    +0.000 HD
ENDBRANCH  14  18
ENDBRANCH   1  17
BRANCH   8  20
ATOM     20  O3  UNL     1      -9.770  38.873  18.591  0.00  0.00    +0.000 OA
ATOM     21  H8  UNL     1      -9.424  39.257  19.462  0.00  0.00    +0.000 HD
ENDBRANCH   8  20
BRANCH   6  22
ATOM     22  O4  UNL     1     -12.872  42.085  16.842  0.00  0.00    +0.000 OA
ATOM     23  H9  UNL     1     -13.212  42.847  16.280  0.00  0.00    +0.000 HD
ENDBRANCH   6  22
TORSDOF 4
ENDMDL
MODEL 7
REMARK VINA RESULT:      -4.3      1.451      1.812
REMARK  Name = .\Apigenin.pdb
REMARK  4 active torsions:
REMARK  status: ('A' for Active; 'I' for Inactive)
REMARK    1  A    between atoms: C3_3  and  O5_20
REMARK    2  A    between atoms: C6_6  and  C7_7
REMARK    3  A    between atoms: C11_12  and  O4_19
REMARK    4  A    between atoms: C13_14  and  O3_18
REMARK                            x       y       z     vdW  Elec       q    Type
REMARK                         _______ _______ _______ _____ _____    ______ ____
ROOT
ATOM      1  C7  UNL     1      -9.582  41.291  13.093  0.00  0.00    +0.000 A 
ATOM      2  C8  UNL     1     -10.837  40.664  13.134  0.00  0.00    +0.000 A 
ATOM      3  C9  UNL     1     -11.679  40.863  14.229  0.00  0.00    +0.000 A 
ATOM      4  O1  UNL     1     -12.794  40.282  14.226  0.00  0.00    +0.000 OA
ATOM      5  C10 UNL     1     -11.266  41.695  15.298  0.00  0.00    +0.000 A 
ATOM      6  C11 UNL     1     -12.037  41.976  16.471  0.00  0.00    +0.000 A 
ATOM      7  C12 UNL     1     -11.510  42.820  17.456  0.00  0.00    +0.000 A 
ATOM      8  C13 UNL     1     -10.245  43.395  17.316  0.00  0.00    +0.000 A 
ATOM      9  C14 UNL     1      -9.488  43.128  16.179  0.00  0.00    +0.000 A 
ATOM     10  C15 UNL     1      -9.983  42.291  15.178  0.00  0.00    +0.000 A 
ATOM     11  O2  UNL     1      -9.222  42.067  14.111  0.00  0.00    +0.000 OA
ENDROOT
BRANCH   1  17
ATOM     12  C1  UNL     1      -8.952  40.440  10.768  0.00  0.00    +0.000 A 
ATOM     13  C2  UNL     1      -8.019  40.316   9.732  0.00  0.00    +0.000 A 
ATOM     14  C3  UNL     1      -6.744  40.875   9.860  0.00  0.00    +0.000 A 
ATOM     15  C4  UNL     1      -6.404  41.559  11.028  0.00  0.00    +0.000 A 
ATOM     16  C5  UNL     1      -7.331  41.686  12.066  0.00  0.00    +0.000 A 
ATOM     17  C6  UNL     1      -8.623  41.130  11.956  0.00  0.00    +0.000 A 
BRANCH  14  18
ATOM     18  O5  UNL     1      -5.808  40.757   8.835  0.00  0.00    +0.000 OA
ATOM     19  H10 UNL     1      -4.978  41.337   8.806  0.00  0.00    +0.000 HD
ENDBRANCH  14  18
ENDBRANCH   1  17
BRANCH   8  20
ATOM     20  O3  UNL     1      -9.733  44.233  18.303  0.00  0.00    +0.000 OA
ATOM     21  H8  UNL     1     -10.190  45.101  18.553  0.00  0.00    +0.000 HD
ENDBRANCH   8  20
BRANCH   6  22
ATOM     22  O4  UNL     1     -13.313  41.461  16.725  0.00  0.00    +0.000 OA
ATOM     23  H9  UNL     1     -14.071  41.390  16.067  0.00  0.00    +0.000 HD
ENDBRANCH   6  22
TORSDOF 4
ENDMDL
MODEL 8
REMARK VINA RESULT:      -3.1      2.337      6.802
REMARK  Name = .\Apigenin.pdb
REMARK  4 active torsions:
REMARK  status: ('A' for Active; 'I' for Inactive)
REMARK    1  A    between atoms: C3_3  and  O5_20
REMARK    2  A    between atoms: C6_6  and  C7_7
REMARK    3  A    between atoms: C11_12  and  O4_19
REMARK    4  A    between atoms: C13_14  and  O3_18
REMARK                            x       y       z     vdW  Elec       q    Type
REMARK                         _______ _______ _______ _____ _____    ______ ____
ROOT
ATOM      1  C7  UNL     1     -10.920  42.590  14.516  0.00  0.00    +0.000 A 
ATOM      2  C8  UNL     1     -11.552  42.080  13.371  0.00  0.00    +0.000 A 
ATOM      3  C9  UNL     1     -10.799  41.432  12.391  0.00  0.00    +0.000 A 
ATOM      4  O1  UNL     1     -11.404  40.991  11.381  0.00  0.00    +0.000 OA
ATOM      5  C10 UNL     1      -9.399  41.291  12.551  0.00  0.00    +0.000 A 
ATOM      6  C11 UNL     1      -8.522  40.650  11.619  0.00  0.00    +0.000 A 
ATOM      7  C12 UNL     1      -7.152  40.578  11.900  0.00  0.00    +0.000 A 
ATOM      8  C13 UNL     1      -6.624  41.119  13.074  0.00  0.00    +0.000 A 
ATOM      9  C14 UNL     1      -7.468  41.745  13.986  0.00  0.00    +0.000 A 
ATOM     10  C15 UNL     1      -8.839  41.835  13.738  0.00  0.00    +0.000 A 
ATOM     11  O2  UNL     1      -9.604  42.442  14.639  0.00  0.00    +0.000 OA
ENDROOT
BRANCH   1  17
ATOM     12  C1  UNL     1     -11.375  43.089  16.981  0.00  0.00    +0.000 A 
ATOM     13  C2  UNL     1     -12.091  43.773  17.968  0.00  0.00    +0.000 A 
ATOM     14  C3  UNL     1     -13.100  44.675  17.612  0.00  0.00    +0.000 A 
ATOM     15  C4  UNL     1     -13.389  44.889  16.264  0.00  0.00    +0.000 A 
ATOM     16  C5  UNL     1     -12.677  44.208  15.273  0.00  0.00    +0.000 A 
ATOM     17  C6  UNL     1     -11.655  43.296  15.611  0.00  0.00    +0.000 A 
BRANCH  14  18
ATOM     18  O5  UNL     1     -13.819  45.360  18.588  0.00  0.00    +0.000 OA
ATOM     19  H10 UNL     1     -13.511  45.385  19.553  0.00  0.00    +0.000 HD
ENDBRANCH  14  18
ENDBRANCH   1  17
BRANCH   8  20
ATOM     20  O3  UNL     1      -5.259  41.041  13.341  0.00  0.00    +0.000 OA
ATOM     21  H8  UNL     1      -4.911  40.792  14.259  0.00  0.00    +0.000 HD
ENDBRANCH   8  20
BRANCH   6  22
ATOM     22  O4  UNL     1      -8.931  40.070  10.413  0.00  0.00    +0.000 OA
ATOM     23  H9  UNL     1      -9.612  40.442   9.772  0.00  0.00    +0.000 HD
ENDBRANCH   6  22
TORSDOF 4
ENDMDL
