MODEL 1
REMARK VINA RESULT:      -5.5      0.000      0.000
REMARK  Name = .\Apigenin.pdb
REMARK  4 active torsions:
REMARK  status: ('A' for Active; 'I' for Inactive)
REMARK    1  A    between atoms: C3_3  and  O5_20
REMARK    2  A    between atoms: C6_6  and  C7_7
REMARK    3  A    between atoms: C11_12  and  O4_19
REMARK    4  A    between atoms: C13_14  and  O3_18
REMARK                            x       y       z     vdW  Elec       q    Type
REMARK                         _______ _______ _______ _____ _____    ______ ____
ROOT
ATOM      1  C7  UNL     1     -18.290  60.212  34.552  0.00  0.00    +0.000 A 
ATOM      2  C8  UNL     1     -18.436  58.851  34.866  0.00  0.00    +0.000 A 
ATOM      3  C9  UNL     1     -17.415  58.178  35.539  0.00  0.00    +0.000 A 
ATOM      4  O1  UNL     1     -17.586  56.961  35.800  0.00  0.00    +0.000 OA
ATOM      5  C10 UNL     1     -16.233  58.868  35.903  0.00  0.00    +0.000 A 
ATOM      6  C11 UNL     1     -15.120  58.290  36.593  0.00  0.00    +0.000 A 
ATOM      7  C12 UNL     1     -14.008  59.087  36.895  0.00  0.00    +0.000 A 
ATOM      8  C13 UNL     1     -13.965  60.436  36.536  0.00  0.00    +0.000 A 
ATOM      9  C14 UNL     1     -15.042  61.007  35.865  0.00  0.00    +0.000 A 
ATOM     10  C15 UNL     1     -16.166  60.242  35.548  0.00  0.00    +0.000 A 
ATOM     11  O2  UNL     1     -17.169  60.832  34.907  0.00  0.00    +0.000 OA
ENDROOT
BRANCH   1  17
ATOM     12  C1  UNL     1     -20.365  60.402  33.072  0.00  0.00    +0.000 A 
ATOM     13  C2  UNL     1     -21.321  61.187  32.419  0.00  0.00    +0.000 A 
ATOM     14  C3  UNL     1     -21.273  62.581  32.511  0.00  0.00    +0.000 A 
ATOM     15  C4  UNL     1     -20.264  63.189  33.259  0.00  0.00    +0.000 A 
ATOM     16  C5  UNL     1     -19.306  62.411  33.914  0.00  0.00    +0.000 A 
ATOM     17  C6  UNL     1     -19.337  61.003  33.834  0.00  0.00    +0.000 A 
BRANCH  14  18
ATOM     18  O5  UNL     1     -22.221  63.370  31.863  0.00  0.00    +0.000 OA
ATOM     19  H10 UNL     1     -22.019  64.327  31.594  0.00  0.00    +0.000 HD
ENDBRANCH  14  18
ENDBRANCH   1  17
BRANCH   8  20
ATOM     20  O3  UNL     1     -12.853  61.216  36.842  0.00  0.00    +0.000 OA
ATOM     21  H8  UNL     1     -11.912  60.844  36.790  0.00  0.00    +0.000 HD
ENDBRANCH   8  20
BRANCH   6  22
ATOM     22  O4  UNL     1     -15.046  56.955  37.004  0.00  0.00    +0.000 OA
ATOM     23  H9  UNL     1     -15.123  56.143  36.415  0.00  0.00    +0.000 HD
ENDBRANCH   6  22
TORSDOF 4
ENDMDL
MODEL 2
REMARK VINA RESULT:      -5.3      1.612      6.535
REMARK  Name = .\Apigenin.pdb
REMARK  4 active torsions:
REMARK  status: ('A' for Active; 'I' for Inactive)
REMARK    1  A    between atoms: C3_3  and  O5_20
REMARK    2  A    between atoms: C6_6  and  C7_7
REMARK    3  A    between atoms: C11_12  and  O4_19
REMARK    4  A    between atoms: C13_14  and  O3_18
REMARK                            x       y       z     vdW  Elec       q    Type
REMARK                         _______ _______ _______ _____ _____    ______ ____
ROOT
ATOM      1  C7  UNL     1     -15.985  60.149  36.190  0.00  0.00    +0.000 A 
ATOM      2  C8  UNL     1     -16.226  58.769  36.091  0.00  0.00    +0.000 A 
ATOM      3  C9  UNL     1     -17.312  58.304  35.348  0.00  0.00    +0.000 A 
ATOM      4  O1  UNL     1     -17.493  57.062  35.285  0.00  0.00    +0.000 OA
ATOM      5  C10 UNL     1     -18.169  59.224  34.696  0.00  0.00    +0.000 A 
ATOM      6  C11 UNL     1     -19.311  58.871  33.907  0.00  0.00    +0.000 A 
ATOM      7  C12 UNL     1     -20.077  59.882  33.315  0.00  0.00    +0.000 A 
ATOM      8  C13 UNL     1     -19.749  61.230  33.477  0.00  0.00    +0.000 A 
ATOM      9  C14 UNL     1     -18.641  61.583  34.241  0.00  0.00    +0.000 A 
ATOM     10  C15 UNL     1     -17.855  60.601  34.847  0.00  0.00    +0.000 A 
ATOM     11  O2  UNL     1     -16.807  60.987  35.567  0.00  0.00    +0.000 OA
ENDROOT
BRANCH   1  17
ATOM     12  C1  UNL     1     -15.018  61.690  37.984  0.00  0.00    +0.000 A 
ATOM     13  C2  UNL     1     -13.917  62.200  38.681  0.00  0.00    +0.000 A 
ATOM     14  C3  UNL     1     -12.624  61.761  38.378  0.00  0.00    +0.000 A 
ATOM     15  C4  UNL     1     -12.436  60.810  37.375  0.00  0.00    +0.000 A 
ATOM     16  C5  UNL     1     -13.531  60.297  36.675  0.00  0.00    +0.000 A 
ATOM     17  C6  UNL     1     -14.844  60.726  36.966  0.00  0.00    +0.000 A 
BRANCH  14  18
ATOM     18  O5  UNL     1     -11.523  62.263  39.066  0.00  0.00    +0.000 OA
ATOM     19  H10 UNL     1     -11.045  61.716  39.773  0.00  0.00    +0.000 HD
ENDBRANCH  14  18
ENDBRANCH   1  17
BRANCH   8  20
ATOM     20  O3  UNL     1     -20.519  62.225  32.881  0.00  0.00    +0.000 OA
ATOM     21  H8  UNL     1     -21.450  62.037  32.528  0.00  0.00    +0.000 HD
ENDBRANCH   8  20
BRANCH   6  22
ATOM     22  O4  UNL     1     -19.740  57.560  33.672  0.00  0.00    +0.000 OA
ATOM     23  H9  UNL     1     -19.193  56.814  33.279  0.00  0.00    +0.000 HD
ENDBRANCH   6  22
TORSDOF 4
ENDMDL
MODEL 3
REMARK VINA RESULT:      -5.3      2.686      4.343
REMARK  Name = .\Apigenin.pdb
REMARK  4 active torsions:
REMARK  status: ('A' for Active; 'I' for Inactive)
REMARK    1  A    between atoms: C3_3  and  O5_20
REMARK    2  A    between atoms: C6_6  and  C7_7
REMARK    3  A    between atoms: C11_12  and  O4_19
REMARK    4  A    between atoms: C13_14  and  O3_18
REMARK                            x       y       z     vdW  Elec       q    Type
REMARK                         _______ _______ _______ _____ _____    ______ ____
ROOT
ATOM      1  C7  UNL     1     -16.474  59.024  36.204  0.00  0.00    +0.000 A 
ATOM      2  C8  UNL     1     -16.374  60.342  36.677  0.00  0.00    +0.000 A 
ATOM      3  C9  UNL     1     -15.299  60.711  37.488  0.00  0.00    +0.000 A 
ATOM      4  O1  UNL     1     -15.248  61.901  37.890  0.00  0.00    +0.000 OA
ATOM      5  C10 UNL     1     -14.313  59.756  37.834  0.00  0.00    +0.000 A 
ATOM      6  C11 UNL     1     -13.169  60.011  38.655  0.00  0.00    +0.000 A 
ATOM      7  C12 UNL     1     -12.267  58.974  38.921  0.00  0.00    +0.000 A 
ATOM      8  C13 UNL     1     -12.460  57.694  38.399  0.00  0.00    +0.000 A 
ATOM      9  C14 UNL     1     -13.569  57.435  37.599  0.00  0.00    +0.000 A 
ATOM     10  C15 UNL     1     -14.489  58.446  37.314  0.00  0.00    +0.000 A 
ATOM     11  O2  UNL     1     -15.532  58.150  36.545  0.00  0.00    +0.000 OA
ENDROOT
BRANCH   1  17
ATOM     12  C1  UNL     1     -18.398  59.430  34.572  0.00  0.00    +0.000 A 
ATOM     13  C2  UNL     1     -19.433  58.937  33.770  0.00  0.00    +0.000 A 
ATOM     14  C3  UNL     1     -19.686  57.563  33.708  0.00  0.00    +0.000 A 
ATOM     15  C4  UNL     1     -18.899  56.683  34.451  0.00  0.00    +0.000 A 
ATOM     16  C5  UNL     1     -17.864  57.168  35.254  0.00  0.00    +0.000 A 
ATOM     17  C6  UNL     1     -17.593  58.551  35.331  0.00  0.00    +0.000 A 
BRANCH  14  18
ATOM     18  O5  UNL     1     -20.714  57.064  32.913  0.00  0.00    +0.000 OA
ATOM     19  H10 UNL     1     -21.671  57.028  33.246  0.00  0.00    +0.000 HD
ENDBRANCH  14  18
ENDBRANCH   1  17
BRANCH   8  20
ATOM     20  O3  UNL     1     -11.555  56.671  38.671  0.00  0.00    +0.000 OA
ATOM     21  H8  UNL     1     -11.787  55.699  38.508  0.00  0.00    +0.000 HD
ENDBRANCH   8  20
BRANCH   6  22
ATOM     22  O4  UNL     1     -12.867  61.249  39.235  0.00  0.00    +0.000 OA
ATOM     23  H9  UNL     1     -11.975  61.714  39.218  0.00  0.00    +0.000 HD
ENDBRANCH   6  22
TORSDOF 4
ENDMDL
MODEL 4
REMARK VINA RESULT:      -5.3      2.544      4.121
REMARK  Name = .\Apigenin.pdb
REMARK  4 active torsions:
REMARK  status: ('A' for Active; 'I' for Inactive)
REMARK    1  A    between atoms: C3_3  and  O5_20
REMARK    2  A    between atoms: C6_6  and  C7_7
REMARK    3  A    between atoms: C11_12  and  O4_19
REMARK    4  A    between atoms: C13_14  and  O3_18
REMARK                            x       y       z     vdW  Elec       q    Type
REMARK                         _______ _______ _______ _____ _____    ______ ____
ROOT
ATOM      1  C7  UNL     1     -16.129  59.973  35.882  0.00  0.00    +0.000 A 
ATOM      2  C8  UNL     1     -14.833  59.746  35.392  0.00  0.00    +0.000 A 
ATOM      3  C9  UNL     1     -13.734  60.309  36.043  0.00  0.00    +0.000 A 
ATOM      4  O1  UNL     1     -12.592  60.081  35.572  0.00  0.00    +0.000 OA
ATOM      5  C10 UNL     1     -13.928  61.111  37.194  0.00  0.00    +0.000 A 
ATOM      6  C11 UNL     1     -12.886  61.742  37.945  0.00  0.00    +0.000 A 
ATOM      7  C12 UNL     1     -13.215  62.511  39.068  0.00  0.00    +0.000 A 
ATOM      8  C13 UNL     1     -14.542  62.673  39.471  0.00  0.00    +0.000 A 
ATOM      9  C14 UNL     1     -15.563  62.064  38.748  0.00  0.00    +0.000 A 
ATOM     10  C15 UNL     1     -15.270  61.291  37.622  0.00  0.00    +0.000 A 
ATOM     11  O2  UNL     1     -16.279  60.730  36.965  0.00  0.00    +0.000 OA
ENDROOT
BRANCH   1  17
ATOM     12  C1  UNL     1     -17.690  58.033  35.308  0.00  0.00    +0.000 A 
ATOM     13  C2  UNL     1     -18.850  57.550  34.693  0.00  0.00    +0.000 A 
ATOM     14  C3  UNL     1     -19.699  58.421  34.003  0.00  0.00    +0.000 A 
ATOM     15  C4  UNL     1     -19.383  59.778  33.930  0.00  0.00    +0.000 A 
ATOM     16  C5  UNL     1     -18.226  60.267  34.541  0.00  0.00    +0.000 A 
ATOM     17  C6  UNL     1     -17.357  59.404  35.243  0.00  0.00    +0.000 A 
BRANCH  14  18
ATOM     18  O5  UNL     1     -20.855  57.949  33.388  0.00  0.00    +0.000 OA
ATOM     19  H10 UNL     1     -21.388  58.527  32.748  0.00  0.00    +0.000 HD
ENDBRANCH  14  18
ENDBRANCH   1  17
BRANCH   8  20
ATOM     20  O3  UNL     1     -14.855  63.441  40.591  0.00  0.00    +0.000 OA
ATOM     21  H8  UNL     1     -15.814  63.579  40.888  0.00  0.00    +0.000 HD
ENDBRANCH   8  20
BRANCH   6  22
ATOM     22  O4  UNL     1     -11.523  61.653  37.643  0.00  0.00    +0.000 OA
ATOM     23  H9  UNL     1     -11.008  60.812  37.444  0.00  0.00    +0.000 HD
ENDBRANCH   6  22
TORSDOF 4
ENDMDL
MODEL 5
REMARK VINA RESULT:      -5.1      2.482      3.561
REMARK  Name = .\Apigenin.pdb
REMARK  4 active torsions:
REMARK  status: ('A' for Active; 'I' for Inactive)
REMARK    1  A    between atoms: C3_3  and  O5_20
REMARK    2  A    between atoms: C6_6  and  C7_7
REMARK    3  A    between atoms: C11_12  and  O4_19
REMARK    4  A    between atoms: C13_14  and  O3_18
REMARK                            x       y       z     vdW  Elec       q    Type
REMARK                         _______ _______ _______ _____ _____    ______ ____
ROOT
ATOM      1  C7  UNL     1     -16.319  59.898  36.478  0.00  0.00    +0.000 A 
ATOM      2  C8  UNL     1     -15.244  59.623  35.618  0.00  0.00    +0.000 A 
ATOM      3  C9  UNL     1     -14.036  59.158  36.140  0.00  0.00    +0.000 A 
ATOM      4  O1  UNL     1     -13.099  58.924  35.336  0.00  0.00    +0.000 OA
ATOM      5  C10 UNL     1     -13.896  58.966  37.536  0.00  0.00    +0.000 A 
ATOM      6  C11 UNL     1     -12.712  58.496  38.190  0.00  0.00    +0.000 A 
ATOM      7  C12 UNL     1     -12.706  58.351  39.582  0.00  0.00    +0.000 A 
ATOM      8  C13 UNL     1     -13.834  58.654  40.347  0.00  0.00    +0.000 A 
ATOM      9  C14 UNL     1     -14.990  59.111  39.722  0.00  0.00    +0.000 A 
ATOM     10  C15 UNL     1     -15.031  59.269  38.335  0.00  0.00    +0.000 A 
ATOM     11  O2  UNL     1     -16.157  59.708  37.784  0.00  0.00    +0.000 OA
ENDROOT
BRANCH   1  17
ATOM     12  C1  UNL     1     -18.858  60.123  36.668  0.00  0.00    +0.000 A 
ATOM     13  C2  UNL     1     -20.072  60.613  36.177  0.00  0.00    +0.000 A 
ATOM     14  C3  UNL     1     -20.103  61.384  35.011  0.00  0.00    +0.000 A 
ATOM     15  C4  UNL     1     -18.914  61.664  34.337  0.00  0.00    +0.000 A 
ATOM     16  C5  UNL     1     -17.698  61.177  34.822  0.00  0.00    +0.000 A 
ATOM     17  C6  UNL     1     -17.645  60.398  35.997  0.00  0.00    +0.000 A 
BRANCH  14  18
ATOM     18  O5  UNL     1     -21.308  61.876  34.515  0.00  0.00    +0.000 OA
ATOM     19  H10 UNL     1     -21.879  61.333  33.876  0.00  0.00    +0.000 HD
ENDBRANCH  14  18
ENDBRANCH   1  17
BRANCH   8  20
ATOM     20  O3  UNL     1     -13.815  58.504  41.732  0.00  0.00    +0.000 OA
ATOM     21  H8  UNL     1     -12.965  58.629  42.268  0.00  0.00    +0.000 HD
ENDBRANCH   8  20
BRANCH   6  22
ATOM     22  O4  UNL     1     -11.523  58.161  37.534  0.00  0.00    +0.000 OA
ATOM     23  H9  UNL     1     -10.721  57.711  37.944  0.00  0.00    +0.000 HD
ENDBRANCH   6  22
TORSDOF 4
ENDMDL
MODEL 6
REMARK VINA RESULT:      -5.0      2.800      4.099
REMARK  Name = .\Apigenin.pdb
REMARK  4 active torsions:
REMARK  status: ('A' for Active; 'I' for Inactive)
REMARK    1  A    between atoms: C3_3  and  O5_20
REMARK    2  A    between atoms: C6_6  and  C7_7
REMARK    3  A    between atoms: C11_12  and  O4_19
REMARK    4  A    between atoms: C13_14  and  O3_18
REMARK                            x       y       z     vdW  Elec       q    Type
REMARK                         _______ _______ _______ _____ _____    ______ ____
ROOT
ATOM      1  C7  UNL     1     -17.256  59.795  36.281  0.00  0.00    +0.000 A 
ATOM      2  C8  UNL     1     -17.923  60.350  37.385  0.00  0.00    +0.000 A 
ATOM      3  C9  UNL     1     -17.221  61.138  38.298  0.00  0.00    +0.000 A 
ATOM      4  O1  UNL     1     -17.856  61.615  39.273  0.00  0.00    +0.000 OA
ATOM      5  C10 UNL     1     -15.837  61.375  38.112  0.00  0.00    +0.000 A 
ATOM      6  C11 UNL     1     -15.011  62.162  38.976  0.00  0.00    +0.000 A 
ATOM      7  C12 UNL     1     -13.652  62.318  38.676  0.00  0.00    +0.000 A 
ATOM      8  C13 UNL     1     -13.087  61.721  37.547  0.00  0.00    +0.000 A 
ATOM      9  C14 UNL     1     -13.881  60.954  36.701  0.00  0.00    +0.000 A 
ATOM     10  C15 UNL     1     -15.240  60.777  36.970  0.00  0.00    +0.000 A 
ATOM     11  O2  UNL     1     -15.957  60.036  36.132  0.00  0.00    +0.000 OA
ENDROOT
BRANCH   1  17
ATOM     12  C1  UNL     1     -17.870  57.531  35.268  0.00  0.00    +0.000 A 
ATOM     13  C2  UNL     1     -18.524  56.777  34.288  0.00  0.00    +0.000 A 
ATOM     14  C3  UNL     1     -19.257  57.413  33.280  0.00  0.00    +0.000 A 
ATOM     15  C4  UNL     1     -19.332  58.806  33.256  0.00  0.00    +0.000 A 
ATOM     16  C5  UNL     1     -18.680  59.564  34.232  0.00  0.00    +0.000 A 
ATOM     17  C6  UNL     1     -17.937  58.942  35.258  0.00  0.00    +0.000 A 
BRANCH  14  18
ATOM     18  O5  UNL     1     -19.911  56.671  32.300  0.00  0.00    +0.000 OA
ATOM     19  H10 UNL     1     -19.549  55.780  31.980  0.00  0.00    +0.000 HD
ENDBRANCH  14  18
ENDBRANCH   1  17
BRANCH   8  20
ATOM     20  O3  UNL     1     -11.734  61.884  37.260  0.00  0.00    +0.000 OA
ATOM     21  H8  UNL     1     -11.095  61.098  37.249  0.00  0.00    +0.000 HD
ENDBRANCH   8  20
BRANCH   6  22
ATOM     22  O4  UNL     1     -15.460  62.808  40.133  0.00  0.00    +0.000 OA
ATOM     23  H9  UNL     1     -15.449  62.437  41.068  0.00  0.00    +0.000 HD
ENDBRANCH   6  22
TORSDOF 4
ENDMDL
MODEL 7
REMARK VINA RESULT:      -5.0      3.616      7.515
REMARK  Name = .\Apigenin.pdb
REMARK  4 active torsions:
REMARK  status: ('A' for Active; 'I' for Inactive)
REMARK    1  A    between atoms: C3_3  and  O5_20
REMARK    2  A    between atoms: C6_6  and  C7_7
REMARK    3  A    between atoms: C11_12  and  O4_19
REMARK    4  A    between atoms: C13_14  and  O3_18
REMARK                            x       y       z     vdW  Elec       q    Type
REMARK                         _______ _______ _______ _____ _____    ______ ____
ROOT
ATOM      1  C7  UNL     1     -15.067  61.637  38.267  0.00  0.00    +0.000 A 
ATOM      2  C8  UNL     1     -14.661  61.119  37.027  0.00  0.00    +0.000 A 
ATOM      3  C9  UNL     1     -15.594  60.501  36.193  0.00  0.00    +0.000 A 
ATOM      4  O1  UNL     1     -15.190  60.050  35.092  0.00  0.00    +0.000 OA
ATOM      5  C10 UNL     1     -16.946  60.394  36.600  0.00  0.00    +0.000 A 
ATOM      6  C11 UNL     1     -17.992  59.784  35.836  0.00  0.00    +0.000 A 
ATOM      7  C12 UNL     1     -19.292  59.746  36.355  0.00  0.00    +0.000 A 
ATOM      8  C13 UNL     1     -19.589  60.293  37.605  0.00  0.00    +0.000 A 
ATOM      9  C14 UNL     1     -18.579  60.889  38.356  0.00  0.00    +0.000 A 
ATOM     10  C15 UNL     1     -17.272  60.944  37.868  0.00  0.00    +0.000 A 
ATOM     11  O2  UNL     1     -16.343  61.523  38.621  0.00  0.00    +0.000 OA
ENDROOT
BRANCH   1  17
ATOM     12  C1  UNL     1     -13.386  63.466  38.870  0.00  0.00    +0.000 A 
ATOM     13  C2  UNL     1     -12.523  64.063  39.794  0.00  0.00    +0.000 A 
ATOM     14  C3  UNL     1     -12.382  63.527  41.078  0.00  0.00    +0.000 A 
ATOM     15  C4  UNL     1     -13.108  62.391  41.434  0.00  0.00    +0.000 A 
ATOM     16  C5  UNL     1     -13.972  61.789  40.516  0.00  0.00    +0.000 A 
ATOM     17  C6  UNL     1     -14.129  62.315  39.216  0.00  0.00    +0.000 A 
BRANCH  14  18
ATOM     18  O5  UNL     1     -11.523  64.114  42.004  0.00  0.00    +0.000 OA
ATOM     19  H10 UNL     1     -11.854  64.801  42.672  0.00  0.00    +0.000 HD
ENDBRANCH  14  18
ENDBRANCH   1  17
BRANCH   8  20
ATOM     20  O3  UNL     1     -20.886  60.248  38.110  0.00  0.00    +0.000 OA
ATOM     21  H8  UNL     1     -21.249  59.421  38.569  0.00  0.00    +0.000 HD
ENDBRANCH   8  20
BRANCH   6  22
ATOM     22  O4  UNL     1     -17.820  59.203  34.575  0.00  0.00    +0.000 OA
ATOM     23  H9  UNL     1     -17.340  58.342  34.374  0.00  0.00    +0.000 HD
ENDBRANCH   6  22
TORSDOF 4
ENDMDL
MODEL 8
REMARK VINA RESULT:      -5.0      4.649      5.750
REMARK  Name = .\Apigenin.pdb
REMARK  4 active torsions:
REMARK  status: ('A' for Active; 'I' for Inactive)
REMARK    1  A    between atoms: C3_3  and  O5_20
REMARK    2  A    between atoms: C6_6  and  C7_7
REMARK    3  A    between atoms: C11_12  and  O4_19
REMARK    4  A    between atoms: C13_14  and  O3_18
REMARK                            x       y       z     vdW  Elec       q    Type
REMARK                         _______ _______ _______ _____ _____    ______ ____
ROOT
ATOM      1  C7  UNL     1     -16.450  60.814  38.959  0.00  0.00    +0.000 A 
ATOM      2  C8  UNL     1     -15.596  61.927  38.943  0.00  0.00    +0.000 A 
ATOM      3  C9  UNL     1     -14.305  61.807  38.425  0.00  0.00    +0.000 A 
ATOM      4  O1  UNL     1     -13.572  62.828  38.430  0.00  0.00    +0.000 OA
ATOM      5  C10 UNL     1     -13.860  60.562  37.918  0.00  0.00    +0.000 A 
ATOM      6  C11 UNL     1     -12.564  60.314  37.363  0.00  0.00    +0.000 A 
ATOM      7  C12 UNL     1     -12.249  59.032  36.894  0.00  0.00    +0.000 A 
ATOM      8  C13 UNL     1     -13.177  57.990  36.957  0.00  0.00    +0.000 A 
ATOM      9  C14 UNL     1     -14.440  58.221  37.495  0.00  0.00    +0.000 A 
ATOM     10  C15 UNL     1     -14.786  59.487  37.972  0.00  0.00    +0.000 A 
ATOM     11  O2  UNL     1     -16.004  59.659  38.476  0.00  0.00    +0.000 OA
ENDROOT
BRANCH   1  17
ATOM     12  C1  UNL     1     -18.950  60.305  38.812  0.00  0.00    +0.000 A 
ATOM     13  C2  UNL     1     -20.237  60.376  39.356  0.00  0.00    +0.000 A 
ATOM     14  C3  UNL     1     -20.449  61.000  40.589  0.00  0.00    +0.000 A 
ATOM     15  C4  UNL     1     -19.369  61.554  41.277  0.00  0.00    +0.000 A 
ATOM     16  C5  UNL     1     -18.081  61.487  40.739  0.00  0.00    +0.000 A 
ATOM     17  C6  UNL     1     -17.846  60.861  39.496  0.00  0.00    +0.000 A 
BRANCH  14  18
ATOM     18  O5  UNL     1     -21.727  61.076  41.139  0.00  0.00    +0.000 OA
ATOM     19  H10 UNL     1     -22.094  61.945  41.508  0.00  0.00    +0.000 HD
ENDBRANCH  14  18
ENDBRANCH   1  17
BRANCH   8  20
ATOM     20  O3  UNL     1     -12.852  56.720  36.487  0.00  0.00    +0.000 OA
ATOM     21  H8  UNL     1     -13.336  55.892  36.814  0.00  0.00    +0.000 HD
ENDBRANCH   8  20
BRANCH   6  22
ATOM     22  O4  UNL     1     -11.552  61.273  37.246  0.00  0.00    +0.000 OA
ATOM     23  H9  UNL     1     -10.812  61.281  36.564  0.00  0.00    +0.000 HD
ENDBRANCH   6  22
TORSDOF 4
ENDMDL
MODEL 9
REMARK VINA RESULT:      -4.8      2.723      6.605
REMARK  Name = .\Apigenin.pdb
REMARK  4 active torsions:
REMARK  status: ('A' for Active; 'I' for Inactive)
REMARK    1  A    between atoms: C3_3  and  O5_20
REMARK    2  A    between atoms: C6_6  and  C7_7
REMARK    3  A    between atoms: C11_12  and  O4_19
REMARK    4  A    between atoms: C13_14  and  O3_18
REMARK                            x       y       z     vdW  Elec       q    Type
REMARK                         _______ _______ _______ _____ _____    ______ ____
ROOT
ATOM      1  C7  UNL     1     -16.975  60.230  36.361  0.00  0.00    +0.000 A 
ATOM      2  C8  UNL     1     -18.012  60.625  37.221  0.00  0.00    +0.000 A 
ATOM      3  C9  UNL     1     -19.332  60.286  36.922  0.00  0.00    +0.000 A 
ATOM      4  O1  UNL     1     -20.230  60.660  37.718  0.00  0.00    +0.000 OA
ATOM      5  C10 UNL     1     -19.624  59.545  35.751  0.00  0.00    +0.000 A 
ATOM      6  C11 UNL     1     -20.933  59.139  35.337  0.00  0.00    +0.000 A 
ATOM      7  C12 UNL     1     -21.084  58.406  34.153  0.00  0.00    +0.000 A 
ATOM      8  C13 UNL     1     -19.981  58.064  33.368  0.00  0.00    +0.000 A 
ATOM      9  C14 UNL     1     -18.705  58.454  33.761  0.00  0.00    +0.000 A 
ATOM     10  C15 UNL     1     -18.518  59.185  34.936  0.00  0.00    +0.000 A 
ATOM     11  O2  UNL     1     -17.280  59.535  35.270  0.00  0.00    +0.000 OA
ENDROOT
BRANCH   1  17
ATOM     12  C1  UNL     1     -14.487  60.065  35.801  0.00  0.00    +0.000 A 
ATOM     13  C2  UNL     1     -13.157  60.395  36.078  0.00  0.00    +0.000 A 
ATOM     14  C3  UNL     1     -12.845  61.217  37.165  0.00  0.00    +0.000 A 
ATOM     15  C4  UNL     1     -13.869  61.706  37.976  0.00  0.00    +0.000 A 
ATOM     16  C5  UNL     1     -15.200  61.380  37.705  0.00  0.00    +0.000 A 
ATOM     17  C6  UNL     1     -15.536  60.553  36.612  0.00  0.00    +0.000 A 
BRANCH  14  18
ATOM     18  O5  UNL     1     -11.523  61.551  37.449  0.00  0.00    +0.000 OA
ATOM     19  H10 UNL     1     -10.974  61.022  38.118  0.00  0.00    +0.000 HD
ENDBRANCH  14  18
ENDBRANCH   1  17
BRANCH   8  20
ATOM     20  O3  UNL     1     -20.145  57.335  32.192  0.00  0.00    +0.000 OA
ATOM     21  H8  UNL     1     -20.636  56.448  32.181  0.00  0.00    +0.000 HD
ENDBRANCH   8  20
BRANCH   6  22
ATOM     22  O4  UNL     1     -22.111  59.420  36.036  0.00  0.00    +0.000 OA
ATOM     23  H9  UNL     1     -22.181  59.711  36.997  0.00  0.00    +0.000 HD
ENDBRANCH   6  22
TORSDOF 4
ENDMDL
