MODEL 1
REMARK VINA RESULT:      -5.9      0.000      0.000
REMARK  Name = .\Apigenin.pdb
REMARK  4 active torsions:
REMARK  status: ('A' for Active; 'I' for Inactive)
REMARK    1  A    between atoms: C3_3  and  O5_20
REMARK    2  A    between atoms: C6_6  and  C7_7
REMARK    3  A    between atoms: C11_12  and  O4_19
REMARK    4  A    between atoms: C13_14  and  O3_18
REMARK                            x       y       z     vdW  Elec       q    Type
REMARK                         _______ _______ _______ _____ _____    ______ ____
ROOT
ATOM      1  C7  UNL     1     -13.748  69.599 -14.496  0.00  0.00    +0.000 A 
ATOM      2  C8  UNL     1     -12.628  69.759 -15.328  0.00  0.00    +0.000 A 
ATOM      3  C9  UNL     1     -12.155  71.039 -15.619  0.00  0.00    +0.000 A 
ATOM      4  O1  UNL     1     -11.151  71.139 -16.368  0.00  0.00    +0.000 OA
ATOM      5  C10 UNL     1     -12.805  72.174 -15.076  0.00  0.00    +0.000 A 
ATOM      6  C11 UNL     1     -12.416  73.534 -15.300  0.00  0.00    +0.000 A 
ATOM      7  C12 UNL     1     -13.147  74.567 -14.701  0.00  0.00    +0.000 A 
ATOM      8  C13 UNL     1     -14.249  74.297 -13.887  0.00  0.00    +0.000 A 
ATOM      9  C14 UNL     1     -14.636  72.979 -13.663  0.00  0.00    +0.000 A 
ATOM     10  C15 UNL     1     -13.929  71.924 -14.245  0.00  0.00    +0.000 A 
ATOM     11  O2  UNL     1     -14.336  70.683 -14.001  0.00  0.00    +0.000 OA
ENDROOT
BRANCH   1  17
ATOM     12  C1  UNL     1     -15.523  68.109 -13.419  0.00  0.00    +0.000 A 
ATOM     13  C2  UNL     1     -16.011  66.836 -13.106  0.00  0.00    +0.000 A 
ATOM     14  C3  UNL     1     -15.308  65.693 -13.500  0.00  0.00    +0.000 A 
ATOM     15  C4  UNL     1     -14.113  65.828 -14.207  0.00  0.00    +0.000 A 
ATOM     16  C5  UNL     1     -13.620  67.096 -14.523  0.00  0.00    +0.000 A 
ATOM     17  C6  UNL     1     -14.315  68.262 -14.136  0.00  0.00    +0.000 A 
BRANCH  14  18
ATOM     18  O5  UNL     1     -15.786  64.422 -13.192  0.00  0.00    +0.000 OA
ATOM     19  H10 UNL     1     -16.519  63.985 -13.739  0.00  0.00    +0.000 HD
ENDBRANCH  14  18
ENDBRANCH   1  17
BRANCH   8  20
ATOM     20  O3  UNL     1     -14.968  75.334 -13.298  0.00  0.00    +0.000 OA
ATOM     21  H8  UNL     1     -15.317  75.266 -12.349  0.00  0.00    +0.000 HD
ENDBRANCH   8  20
BRANCH   6  22
ATOM     22  O4  UNL     1     -11.334  73.930 -16.093  0.00  0.00    +0.000 OA
ATOM     23  H9  UNL     1     -10.743  73.329 -16.643  0.00  0.00    +0.000 HD
ENDBRANCH   6  22
TORSDOF 4
ENDMDL
MODEL 2
REMARK VINA RESULT:      -5.7      0.428      1.162
REMARK  Name = .\Apigenin.pdb
REMARK  4 active torsions:
REMARK  status: ('A' for Active; 'I' for Inactive)
REMARK    1  A    between atoms: C3_3  and  O5_20
REMARK    2  A    between atoms: C6_6  and  C7_7
REMARK    3  A    between atoms: C11_12  and  O4_19
REMARK    4  A    between atoms: C13_14  and  O3_18
REMARK                            x       y       z     vdW  Elec       q    Type
REMARK                         _______ _______ _______ _____ _____    ______ ____
ROOT
ATOM      1  C7  UNL     1     -13.637  69.968 -14.582  0.00  0.00    +0.000 A 
ATOM      2  C8  UNL     1     -12.564  70.215 -15.453  0.00  0.00    +0.000 A 
ATOM      3  C9  UNL     1     -12.178  71.528 -15.726  0.00  0.00    +0.000 A 
ATOM      4  O1  UNL     1     -11.213  71.705 -16.512  0.00  0.00    +0.000 OA
ATOM      5  C10 UNL     1     -12.869  72.608 -15.127  0.00  0.00    +0.000 A 
ATOM      6  C11 UNL     1     -12.569  73.993 -15.328  0.00  0.00    +0.000 A 
ATOM      7  C12 UNL     1     -13.333  74.966 -14.672  0.00  0.00    +0.000 A 
ATOM      8  C13 UNL     1     -14.383  74.611 -13.823  0.00  0.00    +0.000 A 
ATOM      9  C14 UNL     1     -14.683  73.267 -13.620  0.00  0.00    +0.000 A 
ATOM     10  C15 UNL     1     -13.942  72.271 -14.259  0.00  0.00    +0.000 A 
ATOM     11  O2  UNL     1     -14.267  71.003 -14.034  0.00  0.00    +0.000 OA
ENDROOT
BRANCH   1  17
ATOM     12  C1  UNL     1     -13.452  67.421 -14.676  0.00  0.00    +0.000 A 
ATOM     13  C2  UNL     1     -13.936  66.155 -14.327  0.00  0.00    +0.000 A 
ATOM     14  C3  UNL     1     -15.083  66.031 -13.537  0.00  0.00    +0.000 A 
ATOM     15  C4  UNL     1     -15.745  67.177 -13.097  0.00  0.00    +0.000 A 
ATOM     16  C5  UNL     1     -15.267  68.444 -13.442  0.00  0.00    +0.000 A 
ATOM     17  C6  UNL     1     -14.112  68.591 -14.238  0.00  0.00    +0.000 A 
BRANCH  14  18
ATOM     18  O5  UNL     1     -15.572  64.775 -13.185  0.00  0.00    +0.000 OA
ATOM     19  H10 UNL     1     -16.242  64.285 -13.767  0.00  0.00    +0.000 HD
ENDBRANCH  14  18
ENDBRANCH   1  17
BRANCH   8  20
ATOM     20  O3  UNL     1     -15.135  75.589 -13.176  0.00  0.00    +0.000 OA
ATOM     21  H8  UNL     1     -16.019  75.913 -13.550  0.00  0.00    +0.000 HD
ENDBRANCH   8  20
BRANCH   6  22
ATOM     22  O4  UNL     1     -11.544  74.473 -16.151  0.00  0.00    +0.000 OA
ATOM     23  H9  UNL     1     -11.251  74.082 -17.031  0.00  0.00    +0.000 HD
ENDBRANCH   6  22
TORSDOF 4
ENDMDL
MODEL 3
REMARK VINA RESULT:      -5.4      1.173      2.665
REMARK  Name = .\Apigenin.pdb
REMARK  4 active torsions:
REMARK  status: ('A' for Active; 'I' for Inactive)
REMARK    1  A    between atoms: C3_3  and  O5_20
REMARK    2  A    between atoms: C6_6  and  C7_7
REMARK    3  A    between atoms: C11_12  and  O4_19
REMARK    4  A    between atoms: C13_14  and  O3_18
REMARK                            x       y       z     vdW  Elec       q    Type
REMARK                         _______ _______ _______ _____ _____    ______ ____
ROOT
ATOM      1  C7  UNL     1     -14.194  70.015 -13.941  0.00  0.00    +0.000 A 
ATOM      2  C8  UNL     1     -14.645  70.989 -13.036  0.00  0.00    +0.000 A 
ATOM      3  C9  UNL     1     -14.321  72.332 -13.241  0.00  0.00    +0.000 A 
ATOM      4  O1  UNL     1     -14.744  73.172 -12.407  0.00  0.00    +0.000 OA
ATOM      5  C10 UNL     1     -13.538  72.708 -14.359  0.00  0.00    +0.000 A 
ATOM      6  C11 UNL     1     -13.142  74.047 -14.675  0.00  0.00    +0.000 A 
ATOM      7  C12 UNL     1     -12.365  74.284 -15.816  0.00  0.00    +0.000 A 
ATOM      8  C13 UNL     1     -11.969  73.238 -16.653  0.00  0.00    +0.000 A 
ATOM      9  C14 UNL     1     -12.349  71.933 -16.354  0.00  0.00    +0.000 A 
ATOM     10  C15 UNL     1     -13.124  71.661 -15.225  0.00  0.00    +0.000 A 
ATOM     11  O2  UNL     1     -13.462  70.399 -14.982  0.00  0.00    +0.000 OA
ENDROOT
BRANCH   1  17
ATOM     12  C1  UNL     1     -15.512  68.069 -12.938  0.00  0.00    +0.000 A 
ATOM     13  C2  UNL     1     -15.758  66.696 -12.834  0.00  0.00    +0.000 A 
ATOM     14  C3  UNL     1     -15.002  65.785 -13.578  0.00  0.00    +0.000 A 
ATOM     15  C4  UNL     1     -13.998  66.252 -14.426  0.00  0.00    +0.000 A 
ATOM     16  C5  UNL     1     -13.747  67.622 -14.534  0.00  0.00    +0.000 A 
ATOM     17  C6  UNL     1     -14.499  68.558 -13.793  0.00  0.00    +0.000 A 
BRANCH  14  18
ATOM     18  O5  UNL     1     -15.239  64.416 -13.480  0.00  0.00    +0.000 OA
ATOM     19  H10 UNL     1     -15.783  64.025 -12.719  0.00  0.00    +0.000 HD
ENDBRANCH  14  18
ENDBRANCH   1  17
BRANCH   8  20
ATOM     20  O3  UNL     1     -11.196  73.488 -17.784  0.00  0.00    +0.000 OA
ATOM     21  H8  UNL     1     -10.532  72.808 -18.134  0.00  0.00    +0.000 HD
ENDBRANCH   8  20
BRANCH   6  22
ATOM     22  O4  UNL     1     -13.475  75.175 -13.917  0.00  0.00    +0.000 OA
ATOM     23  H9  UNL     1     -13.666  75.196 -12.930  0.00  0.00    +0.000 HD
ENDBRANCH   6  22
TORSDOF 4
ENDMDL
MODEL 4
REMARK VINA RESULT:      -5.2      1.511      3.235
REMARK  Name = .\Apigenin.pdb
REMARK  4 active torsions:
REMARK  status: ('A' for Active; 'I' for Inactive)
REMARK    1  A    between atoms: C3_3  and  O5_20
REMARK    2  A    between atoms: C6_6  and  C7_7
REMARK    3  A    between atoms: C11_12  and  O4_19
REMARK    4  A    between atoms: C13_14  and  O3_18
REMARK                            x       y       z     vdW  Elec       q    Type
REMARK                         _______ _______ _______ _____ _____    ______ ____
ROOT
ATOM      1  C7  UNL     1     -14.089  71.078 -13.695  0.00  0.00    +0.000 A 
ATOM      2  C8  UNL     1     -14.888  71.776 -12.775  0.00  0.00    +0.000 A 
ATOM      3  C9  UNL     1     -14.906  73.171 -12.787  0.00  0.00    +0.000 A 
ATOM      4  O1  UNL     1     -15.634  73.757 -11.946  0.00  0.00    +0.000 OA
ATOM      5  C10 UNL     1     -14.117  73.881 -13.724  0.00  0.00    +0.000 A 
ATOM      6  C11 UNL     1     -14.051  75.307 -13.834  0.00  0.00    +0.000 A 
ATOM      7  C12 UNL     1     -13.228  75.885 -14.809  0.00  0.00    +0.000 A 
ATOM      8  C13 UNL     1     -12.471  75.096 -15.678  0.00  0.00    +0.000 A 
ATOM      9  C14 UNL     1     -12.529  73.709 -15.579  0.00  0.00    +0.000 A 
ATOM     10  C15 UNL     1     -13.338  73.100 -14.618  0.00  0.00    +0.000 A 
ATOM     11  O2  UNL     1     -13.360  71.773 -14.563  0.00  0.00    +0.000 OA
ENDROOT
BRANCH   1  17
ATOM     12  C1  UNL     1     -13.470  68.882 -14.846  0.00  0.00    +0.000 A 
ATOM     13  C2  UNL     1     -13.425  67.484 -14.848  0.00  0.00    +0.000 A 
ATOM     14  C3  UNL     1     -13.921  66.760 -13.759  0.00  0.00    +0.000 A 
ATOM     15  C4  UNL     1     -14.464  67.440 -12.668  0.00  0.00    +0.000 A 
ATOM     16  C5  UNL     1     -14.512  68.836 -12.660  0.00  0.00    +0.000 A 
ATOM     17  C6  UNL     1     -14.016  69.585 -13.748  0.00  0.00    +0.000 A 
BRANCH  14  18
ATOM     18  O5  UNL     1     -13.881  65.368 -13.752  0.00  0.00    +0.000 OA
ATOM     19  H10 UNL     1     -13.682  64.848 -12.905  0.00  0.00    +0.000 HD
ENDBRANCH  14  18
ENDBRANCH   1  17
BRANCH   8  20
ATOM     20  O3  UNL     1     -11.657  75.684 -16.643  0.00  0.00    +0.000 OA
ATOM     21  H8  UNL     1     -11.878  76.587 -17.046  0.00  0.00    +0.000 HD
ENDBRANCH   8  20
BRANCH   6  22
ATOM     22  O4  UNL     1     -14.760  76.201 -13.024  0.00  0.00    +0.000 OA
ATOM     23  H9  UNL     1     -14.499  76.507 -12.102  0.00  0.00    +0.000 HD
ENDBRANCH   6  22
TORSDOF 4
ENDMDL
MODEL 5
REMARK VINA RESULT:      -5.1      1.636      6.658
REMARK  Name = .\Apigenin.pdb
REMARK  4 active torsions:
REMARK  status: ('A' for Active; 'I' for Inactive)
REMARK    1  A    between atoms: C3_3  and  O5_20
REMARK    2  A    between atoms: C6_6  and  C7_7
REMARK    3  A    between atoms: C11_12  and  O4_19
REMARK    4  A    between atoms: C13_14  and  O3_18
REMARK                            x       y       z     vdW  Elec       q    Type
REMARK                         _______ _______ _______ _____ _____    ______ ____
ROOT
ATOM      1  C7  UNL     1     -13.828  71.108 -14.224  0.00  0.00    +0.000 A 
ATOM      2  C8  UNL     1     -12.940  70.281 -14.930  0.00  0.00    +0.000 A 
ATOM      3  C9  UNL     1     -13.132  68.899 -14.939  0.00  0.00    +0.000 A 
ATOM      4  O1  UNL     1     -12.313  68.195 -15.582  0.00  0.00    +0.000 OA
ATOM      5  C10 UNL     1     -14.222  68.332 -14.234  0.00  0.00    +0.000 A 
ATOM      6  C11 UNL     1     -14.524  66.934 -14.168  0.00  0.00    +0.000 A 
ATOM      7  C12 UNL     1     -15.636  66.504 -13.434  0.00  0.00    +0.000 A 
ATOM      8  C13 UNL     1     -16.459  67.413 -12.766  0.00  0.00    +0.000 A 
ATOM      9  C14 UNL     1     -16.174  68.774 -12.824  0.00  0.00    +0.000 A 
ATOM     10  C15 UNL     1     -15.073  69.238 -13.547  0.00  0.00    +0.000 A 
ATOM     11  O2  UNL     1     -14.842  70.546 -13.573  0.00  0.00    +0.000 OA
ENDROOT
BRANCH   1  17
ATOM     12  C1  UNL     1     -14.183  73.372 -13.093  0.00  0.00    +0.000 A 
ATOM     13  C2  UNL     1     -14.030  74.762 -13.087  0.00  0.00    +0.000 A 
ATOM     14  C3  UNL     1     -13.386  75.406 -14.148  0.00  0.00    +0.000 A 
ATOM     15  C4  UNL     1     -12.896  74.655 -15.216  0.00  0.00    +0.000 A 
ATOM     16  C5  UNL     1     -13.046  73.266 -15.228  0.00  0.00    +0.000 A 
ATOM     17  C6  UNL     1     -13.691  72.597 -14.167  0.00  0.00    +0.000 A 
BRANCH  14  18
ATOM     18  O5  UNL     1     -13.230  76.790 -14.150  0.00  0.00    +0.000 OA
ATOM     19  H10 UNL     1     -13.605  77.367 -13.406  0.00  0.00    +0.000 HD
ENDBRANCH  14  18
ENDBRANCH   1  17
BRANCH   8  20
ATOM     20  O3  UNL     1     -17.562  66.972 -12.040  0.00  0.00    +0.000 OA
ATOM     21  H8  UNL     1     -17.506  66.791 -11.045  0.00  0.00    +0.000 HD
ENDBRANCH   8  20
BRANCH   6  22
ATOM     22  O4  UNL     1     -13.777  65.929 -14.793  0.00  0.00    +0.000 OA
ATOM     23  H9  UNL     1     -13.816  64.944 -14.592  0.00  0.00    +0.000 HD
ENDBRANCH   6  22
TORSDOF 4
ENDMDL
MODEL 6
REMARK VINA RESULT:      -5.0      1.803      7.146
REMARK  Name = .\Apigenin.pdb
REMARK  4 active torsions:
REMARK  status: ('A' for Active; 'I' for Inactive)
REMARK    1  A    between atoms: C3_3  and  O5_20
REMARK    2  A    between atoms: C6_6  and  C7_7
REMARK    3  A    between atoms: C11_12  and  O4_19
REMARK    4  A    between atoms: C13_14  and  O3_18
REMARK                            x       y       z     vdW  Elec       q    Type
REMARK                         _______ _______ _______ _____ _____    ______ ____
ROOT
ATOM      1  C7  UNL     1     -14.131  71.648 -13.794  0.00  0.00    +0.000 A 
ATOM      2  C8  UNL     1     -14.967  71.693 -12.668  0.00  0.00    +0.000 A 
ATOM      3  C9  UNL     1     -15.547  70.520 -12.183  0.00  0.00    +0.000 A 
ATOM      4  O1  UNL     1     -16.290  70.605 -11.173  0.00  0.00    +0.000 OA
ATOM      5  C10 UNL     1     -15.293  69.286 -12.830  0.00  0.00    +0.000 A 
ATOM      6  C11 UNL     1     -15.827  68.019 -12.430  0.00  0.00    +0.000 A 
ATOM      7  C12 UNL     1     -15.495  66.870 -13.158  0.00  0.00    +0.000 A 
ATOM      8  C13 UNL     1     -14.650  66.936 -14.268  0.00  0.00    +0.000 A 
ATOM      9  C14 UNL     1     -14.125  68.162 -14.665  0.00  0.00    +0.000 A 
ATOM     10  C15 UNL     1     -14.436  69.328 -13.962  0.00  0.00    +0.000 A 
ATOM     11  O2  UNL     1     -13.910  70.474 -14.379  0.00  0.00    +0.000 OA
ENDROOT
BRANCH   1  17
ATOM     12  C1  UNL     1     -13.546  74.135 -13.770  0.00  0.00    +0.000 A 
ATOM     13  C2  UNL     1     -12.912  75.238 -14.351  0.00  0.00    +0.000 A 
ATOM     14  C3  UNL     1     -12.192  75.093 -15.542  0.00  0.00    +0.000 A 
ATOM     15  C4  UNL     1     -12.110  73.840 -16.149  0.00  0.00    +0.000 A 
ATOM     16  C5  UNL     1     -12.741  72.734 -15.574  0.00  0.00    +0.000 A 
ATOM     17  C6  UNL     1     -13.471  72.860 -14.373  0.00  0.00    +0.000 A 
BRANCH  14  18
ATOM     18  O5  UNL     1     -11.558  76.185 -16.128  0.00  0.00    +0.000 OA
ATOM     19  H10 UNL     1     -10.699  76.079 -16.655  0.00  0.00    +0.000 HD
ENDBRANCH  14  18
ENDBRANCH   1  17
BRANCH   8  20
ATOM     20  O3  UNL     1     -14.327  65.786 -14.984  0.00  0.00    +0.000 OA
ATOM     21  H8  UNL     1     -13.868  65.832 -15.886  0.00  0.00    +0.000 HD
ENDBRANCH   8  20
BRANCH   6  22
ATOM     22  O4  UNL     1     -16.681  67.826 -11.339  0.00  0.00    +0.000 OA
ATOM     23  H9  UNL     1     -16.438  67.912 -10.366  0.00  0.00    +0.000 HD
ENDBRANCH   6  22
TORSDOF 4
ENDMDL
MODEL 7
REMARK VINA RESULT:      -4.6      1.674      6.465
REMARK  Name = .\Apigenin.pdb
REMARK  4 active torsions:
REMARK  status: ('A' for Active; 'I' for Inactive)
REMARK    1  A    between atoms: C3_3  and  O5_20
REMARK    2  A    between atoms: C6_6  and  C7_7
REMARK    3  A    between atoms: C11_12  and  O4_19
REMARK    4  A    between atoms: C13_14  and  O3_18
REMARK                            x       y       z     vdW  Elec       q    Type
REMARK                         _______ _______ _______ _____ _____    ______ ____
ROOT
ATOM      1  C7  UNL     1     -14.218  72.100 -13.704  0.00  0.00    +0.000 A 
ATOM      2  C8  UNL     1     -13.207  72.106 -14.677  0.00  0.00    +0.000 A 
ATOM      3  C9  UNL     1     -12.715  70.899 -15.177  0.00  0.00    +0.000 A 
ATOM      4  O1  UNL     1     -11.809  70.949 -16.047  0.00  0.00    +0.000 OA
ATOM      5  C10 UNL     1     -13.236  69.672 -14.701  0.00  0.00    +0.000 A 
ATOM      6  C11 UNL     1     -12.815  68.374 -15.134  0.00  0.00    +0.000 A 
ATOM      7  C12 UNL     1     -13.414  67.235 -14.581  0.00  0.00    +0.000 A 
ATOM      8  C13 UNL     1     -14.416  67.341 -13.615  0.00  0.00    +0.000 A 
ATOM      9  C14 UNL     1     -14.832  68.599 -13.187  0.00  0.00    +0.000 A 
ATOM     10  C15 UNL     1     -14.256  69.754 -13.717  0.00  0.00    +0.000 A 
ATOM     11  O2  UNL     1     -14.687  70.932 -13.277  0.00  0.00    +0.000 OA
ENDROOT
BRANCH   1  17
ATOM     12  C1  UNL     1     -14.862  74.570 -13.828  0.00  0.00    +0.000 A 
ATOM     13  C2  UNL     1     -15.414  75.711 -13.236  0.00  0.00    +0.000 A 
ATOM     14  C3  UNL     1     -15.913  75.659 -11.931  0.00  0.00    +0.000 A 
ATOM     15  C4  UNL     1     -15.858  74.461 -11.219  0.00  0.00    +0.000 A 
ATOM     16  C5  UNL     1     -15.307  73.318 -11.804  0.00  0.00    +0.000 A 
ATOM     17  C6  UNL     1     -14.799  73.349 -13.119  0.00  0.00    +0.000 A 
BRANCH  14  18
ATOM     18  O5  UNL     1     -16.465  76.790 -11.334  0.00  0.00    +0.000 OA
ATOM     19  H10 UNL     1     -16.180  77.093 -10.410  0.00  0.00    +0.000 HD
ENDBRANCH  14  18
ENDBRANCH   1  17
BRANCH   8  20
ATOM     20  O3  UNL     1     -15.004  66.201 -13.072  0.00  0.00    +0.000 OA
ATOM     21  H8  UNL     1     -16.010  66.081 -13.049  0.00  0.00    +0.000 HD
ENDBRANCH   8  20
BRANCH   6  22
ATOM     22  O4  UNL     1     -11.824  68.138 -16.093  0.00  0.00    +0.000 OA
ATOM     23  H9  UNL     1     -11.957  67.725 -17.001  0.00  0.00    +0.000 HD
ENDBRANCH   6  22
TORSDOF 4
ENDMDL
MODEL 8
REMARK VINA RESULT:      -4.2      2.312      6.512
REMARK  Name = .\Apigenin.pdb
REMARK  4 active torsions:
REMARK  status: ('A' for Active; 'I' for Inactive)
REMARK    1  A    between atoms: C3_3  and  O5_20
REMARK    2  A    between atoms: C6_6  and  C7_7
REMARK    3  A    between atoms: C11_12  and  O4_19
REMARK    4  A    between atoms: C13_14  and  O3_18
REMARK                            x       y       z     vdW  Elec       q    Type
REMARK                         _______ _______ _______ _____ _____    ______ ____
ROOT
ATOM      1  C7  UNL     1     -15.028  71.827 -13.213  0.00  0.00    +0.000 A 
ATOM      2  C8  UNL     1     -15.657  70.583 -13.051  0.00  0.00    +0.000 A 
ATOM      3  C9  UNL     1     -15.071  69.432 -13.581  0.00  0.00    +0.000 A 
ATOM      4  O1  UNL     1     -15.667  68.338 -13.414  0.00  0.00    +0.000 OA
ATOM      5  C10 UNL     1     -13.844  69.522 -14.283  0.00  0.00    +0.000 A 
ATOM      6  C11 UNL     1     -13.147  68.418 -14.870  0.00  0.00    +0.000 A 
ATOM      7  C12 UNL     1     -11.938  68.644 -15.539  0.00  0.00    +0.000 A 
ATOM      8  C13 UNL     1     -11.397  69.928 -15.643  0.00  0.00    +0.000 A 
ATOM      9  C14 UNL     1     -12.067  71.008 -15.075  0.00  0.00    +0.000 A 
ATOM     10  C15 UNL     1     -13.275  70.818 -14.402  0.00  0.00    +0.000 A 
ATOM     11  O2  UNL     1     -13.877  71.879 -13.876  0.00  0.00    +0.000 OA
ENDROOT
BRANCH   1  17
ATOM     12  C1  UNL     1     -14.780  74.189 -12.271  0.00  0.00    +0.000 A 
ATOM     13  C2  UNL     1     -15.355  75.364 -11.773  0.00  0.00    +0.000 A 
ATOM     14  C3  UNL     1     -16.744  75.481 -11.668  0.00  0.00    +0.000 A 
ATOM     15  C4  UNL     1     -17.557  74.418 -12.063  0.00  0.00    +0.000 A 
ATOM     16  C5  UNL     1     -16.990  73.242 -12.561  0.00  0.00    +0.000 A 
ATOM     17  C6  UNL     1     -15.590  73.105 -12.675  0.00  0.00    +0.000 A 
BRANCH  14  18
ATOM     18  O5  UNL     1     -17.325  76.646 -11.173  0.00  0.00    +0.000 OA
ATOM     19  H10 UNL     1     -16.978  77.095 -10.334  0.00  0.00    +0.000 HD
ENDBRANCH  14  18
ENDBRANCH   1  17
BRANCH   8  20
ATOM     20  O3  UNL     1     -10.193  70.139 -16.311  0.00  0.00    +0.000 OA
ATOM     21  H8  UNL     1      -9.394  69.532 -16.171  0.00  0.00    +0.000 HD
ENDBRANCH   8  20
BRANCH   6  22
ATOM     22  O4  UNL     1     -13.586  67.090 -14.833  0.00  0.00    +0.000 OA
ATOM     23  H9  UNL     1     -13.482  66.405 -15.563  0.00  0.00    +0.000 HD
ENDBRANCH   6  22
TORSDOF 4
ENDMDL
MODEL 9
REMARK VINA RESULT:      -3.8      2.133      3.762
REMARK  Name = .\Apigenin.pdb
REMARK  4 active torsions:
REMARK  status: ('A' for Active; 'I' for Inactive)
REMARK    1  A    between atoms: C3_3  and  O5_20
REMARK    2  A    between atoms: C6_6  and  C7_7
REMARK    3  A    between atoms: C11_12  and  O4_19
REMARK    4  A    between atoms: C13_14  and  O3_18
REMARK                            x       y       z     vdW  Elec       q    Type
REMARK                         _______ _______ _______ _____ _____    ______ ____
ROOT
ATOM      1  C7  UNL     1     -15.067  71.089 -12.855  0.00  0.00    +0.000 A 
ATOM      2  C8  UNL     1     -16.244  71.514 -12.221  0.00  0.00    +0.000 A 
ATOM      3  C9  UNL     1     -16.479  72.876 -12.029  0.00  0.00    +0.000 A 
ATOM      4  O1  UNL     1     -17.546  73.214 -11.456  0.00  0.00    +0.000 OA
ATOM      5  C10 UNL     1     -15.529  73.828 -12.473  0.00  0.00    +0.000 A 
ATOM      6  C11 UNL     1     -15.656  75.247 -12.334  0.00  0.00    +0.000 A 
ATOM      7  C12 UNL     1     -14.639  76.080 -12.820  0.00  0.00    +0.000 A 
ATOM      8  C13 UNL     1     -13.504  75.552 -13.438  0.00  0.00    +0.000 A 
ATOM      9  C14 UNL     1     -13.372  74.173 -13.578  0.00  0.00    +0.000 A 
ATOM     10  C15 UNL     1     -14.365  73.314 -13.105  0.00  0.00    +0.000 A 
ATOM     11  O2  UNL     1     -14.194  72.006 -13.262  0.00  0.00    +0.000 OA
ENDROOT
BRANCH   1  17
ATOM     12  C1  UNL     1     -14.675  68.692 -12.062  0.00  0.00    +0.000 A 
ATOM     13  C2  UNL     1     -14.367  67.356 -12.342  0.00  0.00    +0.000 A 
ATOM     14  C3  UNL     1     -14.120  66.949 -13.657  0.00  0.00    +0.000 A 
ATOM     15  C4  UNL     1     -14.182  67.883 -14.691  0.00  0.00    +0.000 A 
ATOM     16  C5  UNL     1     -14.489  69.218 -14.419  0.00  0.00    +0.000 A 
ATOM     17  C6  UNL     1     -14.742  69.649 -13.099  0.00  0.00    +0.000 A 
BRANCH  14  18
ATOM     18  O5  UNL     1     -13.812  65.621 -13.945  0.00  0.00    +0.000 OA
ATOM     19  H10 UNL     1     -13.223  65.069 -13.332  0.00  0.00    +0.000 HD
ENDBRANCH  14  18
ENDBRANCH   1  17
BRANCH   8  20
ATOM     20  O3  UNL     1     -12.501  76.391 -13.916  0.00  0.00    +0.000 OA
ATOM     21  H8  UNL     1     -12.470  77.374 -13.673  0.00  0.00    +0.000 HD
ENDBRANCH   8  20
BRANCH   6  22
ATOM     22  O4  UNL     1     -16.742  75.893 -11.735  0.00  0.00    +0.000 OA
ATOM     23  H9  UNL     1     -16.722  76.437 -10.889  0.00  0.00    +0.000 HD
ENDBRANCH   6  22
TORSDOF 4
ENDMDL
