MODEL 1
REMARK VINA RESULT:      -5.6      0.000      0.000
REMARK  Name = .\Apigenin.pdb
REMARK  4 active torsions:
REMARK  status: ('A' for Active; 'I' for Inactive)
REMARK    1  A    between atoms: C3_3  and  O5_20
REMARK    2  A    between atoms: C6_6  and  C7_7
REMARK    3  A    between atoms: C11_12  and  O4_19
REMARK    4  A    between atoms: C13_14  and  O3_18
REMARK                            x       y       z     vdW  Elec       q    Type
REMARK                         _______ _______ _______ _____ _____    ______ ____
ROOT
ATOM      1  C7  UNL     1       5.979  51.134 -32.141  0.00  0.00    +0.000 A 
ATOM      2  C8  UNL     1       6.137  51.850 -30.944  0.00  0.00    +0.000 A 
ATOM      3  C9  UNL     1       5.912  53.227 -30.922  0.00  0.00    +0.000 A 
ATOM      4  O1  UNL     1       6.065  53.830 -29.829  0.00  0.00    +0.000 OA
ATOM      5  C10 UNL     1       5.528  53.900 -32.107  0.00  0.00    +0.000 A 
ATOM      6  C11 UNL     1       5.270  55.305 -32.211  0.00  0.00    +0.000 A 
ATOM      7  C12 UNL     1       4.896  55.846 -33.447  0.00  0.00    +0.000 A 
ATOM      8  C13 UNL     1       4.767  55.041 -34.581  0.00  0.00    +0.000 A 
ATOM      9  C14 UNL     1       5.015  53.675 -34.490  0.00  0.00    +0.000 A 
ATOM     10  C15 UNL     1       5.391  53.102 -33.274  0.00  0.00    +0.000 A 
ATOM     11  O2  UNL     1       5.617  51.793 -33.237  0.00  0.00    +0.000 OA
ENDROOT
BRANCH   1  17
ATOM     12  C1  UNL     1       7.217  49.089 -33.045  0.00  0.00    +0.000 A 
ATOM     13  C2  UNL     1       7.382  47.702 -33.111  0.00  0.00    +0.000 A 
ATOM     14  C3  UNL     1       6.539  46.855 -32.384  0.00  0.00    +0.000 A 
ATOM     15  C4  UNL     1       5.529  47.401 -31.592  0.00  0.00    +0.000 A 
ATOM     16  C5  UNL     1       5.359  48.786 -31.522  0.00  0.00    +0.000 A 
ATOM     17  C6  UNL     1       6.200  49.658 -32.247  0.00  0.00    +0.000 A 
BRANCH  14  18
ATOM     18  O5  UNL     1       6.695  45.472 -32.444  0.00  0.00    +0.000 OA
ATOM     19  H10 UNL     1       7.018  45.011 -33.287  0.00  0.00    +0.000 HD
ENDBRANCH  14  18
ENDBRANCH   1  17
BRANCH   8  20
ATOM     20  O3  UNL     1       4.394  55.593 -35.804  0.00  0.00    +0.000 OA
ATOM     21  H8  UNL     1       4.903  55.390 -36.656  0.00  0.00    +0.000 HD
ENDBRANCH   8  20
BRANCH   6  22
ATOM     22  O4  UNL     1       5.365  56.211 -31.150  0.00  0.00    +0.000 OA
ATOM     23  H9  UNL     1       4.725  56.296 -30.378  0.00  0.00    +0.000 HD
ENDBRANCH   6  22
TORSDOF 4
ENDMDL
MODEL 2
REMARK VINA RESULT:      -5.5      1.635      1.928
REMARK  Name = .\Apigenin.pdb
REMARK  4 active torsions:
REMARK  status: ('A' for Active; 'I' for Inactive)
REMARK    1  A    between atoms: C3_3  and  O5_20
REMARK    2  A    between atoms: C6_6  and  C7_7
REMARK    3  A    between atoms: C11_12  and  O4_19
REMARK    4  A    between atoms: C13_14  and  O3_18
REMARK                            x       y       z     vdW  Elec       q    Type
REMARK                         _______ _______ _______ _____ _____    ______ ____
ROOT
ATOM      1  C7  UNL     1       6.040  49.682 -31.747  0.00  0.00    +0.000 A 
ATOM      2  C8  UNL     1       6.935  50.368 -30.911  0.00  0.00    +0.000 A 
ATOM      3  C9  UNL     1       6.777  51.738 -30.696  0.00  0.00    +0.000 A 
ATOM      4  O1  UNL     1       7.601  52.313 -29.940  0.00  0.00    +0.000 OA
ATOM      5  C10 UNL     1       5.715  52.434 -31.322  0.00  0.00    +0.000 A 
ATOM      6  C11 UNL     1       5.450  53.834 -31.181  0.00  0.00    +0.000 A 
ATOM      7  C12 UNL     1       4.363  54.401 -31.858  0.00  0.00    +0.000 A 
ATOM      8  C13 UNL     1       3.531  53.626 -32.669  0.00  0.00    +0.000 A 
ATOM      9  C14 UNL     1       3.780  52.264 -32.813  0.00  0.00    +0.000 A 
ATOM     10  C15 UNL     1       4.856  51.667 -32.152  0.00  0.00    +0.000 A 
ATOM     11  O2  UNL     1       5.053  50.364 -32.321  0.00  0.00    +0.000 OA
ENDROOT
BRANCH   1  17
ATOM     12  C1  UNL     1       7.193  47.650 -32.781  0.00  0.00    +0.000 A 
ATOM     13  C2  UNL     1       7.242  46.271 -33.015  0.00  0.00    +0.000 A 
ATOM     14  C3  UNL     1       6.246  45.432 -32.505  0.00  0.00    +0.000 A 
ATOM     15  C4  UNL     1       5.201  45.977 -31.759  0.00  0.00    +0.000 A 
ATOM     16  C5  UNL     1       5.146  47.353 -31.521  0.00  0.00    +0.000 A 
ATOM     17  C6  UNL     1       6.140  48.216 -32.027  0.00  0.00    +0.000 A 
BRANCH  14  18
ATOM     18  O5  UNL     1       6.286  44.059 -32.733  0.00  0.00    +0.000 OA
ATOM     19  H10 UNL     1       5.662  43.423 -32.251  0.00  0.00    +0.000 HD
ENDBRANCH  14  18
ENDBRANCH   1  17
BRANCH   8  20
ATOM     20  O3  UNL     1       2.453  54.202 -33.336  0.00  0.00    +0.000 OA
ATOM     21  H8  UNL     1       2.588  54.855 -34.100  0.00  0.00    +0.000 HD
ENDBRANCH   8  20
BRANCH   6  22
ATOM     22  O4  UNL     1       6.209  54.712 -30.400  0.00  0.00    +0.000 OA
ATOM     23  H9  UNL     1       6.478  54.577 -29.440  0.00  0.00    +0.000 HD
ENDBRANCH   6  22
TORSDOF 4
ENDMDL
MODEL 3
REMARK VINA RESULT:      -5.4      1.598      2.005
REMARK  Name = .\Apigenin.pdb
REMARK  4 active torsions:
REMARK  status: ('A' for Active; 'I' for Inactive)
REMARK    1  A    between atoms: C3_3  and  O5_20
REMARK    2  A    between atoms: C6_6  and  C7_7
REMARK    3  A    between atoms: C11_12  and  O4_19
REMARK    4  A    between atoms: C13_14  and  O3_18
REMARK                            x       y       z     vdW  Elec       q    Type
REMARK                         _______ _______ _______ _____ _____    ______ ____
ROOT
ATOM      1  C7  UNL     1       6.064  50.134 -32.013  0.00  0.00    +0.000 A 
ATOM      2  C8  UNL     1       6.995  50.927 -31.324  0.00  0.00    +0.000 A 
ATOM      3  C9  UNL     1       6.745  52.287 -31.133  0.00  0.00    +0.000 A 
ATOM      4  O1  UNL     1       7.605  52.961 -30.511  0.00  0.00    +0.000 OA
ATOM      5  C10 UNL     1       5.554  52.865 -31.636  0.00  0.00    +0.000 A 
ATOM      6  C11 UNL     1       5.186  54.242 -31.504  0.00  0.00    +0.000 A 
ATOM      7  C12 UNL     1       3.975  54.686 -32.049  0.00  0.00    +0.000 A 
ATOM      8  C13 UNL     1       3.118  53.810 -32.719  0.00  0.00    +0.000 A 
ATOM      9  C14 UNL     1       3.466  52.470 -32.852  0.00  0.00    +0.000 A 
ATOM     10  C15 UNL     1       4.667  51.993 -32.321  0.00  0.00    +0.000 A 
ATOM     11  O2  UNL     1       4.955  50.705 -32.473  0.00  0.00    +0.000 OA
ENDROOT
BRANCH   1  17
ATOM     12  C1  UNL     1       5.417  47.682 -31.701  0.00  0.00    +0.000 A 
ATOM     13  C2  UNL     1       5.640  46.326 -31.960  0.00  0.00    +0.000 A 
ATOM     14  C3  UNL     1       6.703  45.928 -32.777  0.00  0.00    +0.000 A 
ATOM     15  C4  UNL     1       7.543  46.893 -33.334  0.00  0.00    +0.000 A 
ATOM     16  C5  UNL     1       7.325  48.249 -33.079  0.00  0.00    +0.000 A 
ATOM     17  C6  UNL     1       6.258  48.671 -32.258  0.00  0.00    +0.000 A 
BRANCH  14  18
ATOM     18  O5  UNL     1       6.934  44.580 -33.041  0.00  0.00    +0.000 OA
ATOM     19  H10 UNL     1       7.288  44.269 -33.937  0.00  0.00    +0.000 HD
ENDBRANCH  14  18
ENDBRANCH   1  17
BRANCH   8  20
ATOM     20  O3  UNL     1       1.916  54.265 -33.256  0.00  0.00    +0.000 OA
ATOM     21  H8  UNL     1       1.456  55.095 -32.901  0.00  0.00    +0.000 HD
ENDBRANCH   8  20
BRANCH   6  22
ATOM     22  O4  UNL     1       5.958  55.213 -30.857  0.00  0.00    +0.000 OA
ATOM     23  H9  UNL     1       5.668  56.147 -30.620  0.00  0.00    +0.000 HD
ENDBRANCH   6  22
TORSDOF 4
ENDMDL
MODEL 4
REMARK VINA RESULT:      -5.3      2.292      3.152
REMARK  Name = .\Apigenin.pdb
REMARK  4 active torsions:
REMARK  status: ('A' for Active; 'I' for Inactive)
REMARK    1  A    between atoms: C3_3  and  O5_20
REMARK    2  A    between atoms: C6_6  and  C7_7
REMARK    3  A    between atoms: C11_12  and  O4_19
REMARK    4  A    between atoms: C13_14  and  O3_18
REMARK                            x       y       z     vdW  Elec       q    Type
REMARK                         _______ _______ _______ _____ _____    ______ ____
ROOT
ATOM      1  C7  UNL     1       6.060  49.748 -32.454  0.00  0.00    +0.000 A 
ATOM      2  C8  UNL     1       6.982  50.062 -33.464  0.00  0.00    +0.000 A 
ATOM      3  C9  UNL     1       6.789  51.196 -34.255  0.00  0.00    +0.000 A 
ATOM      4  O1  UNL     1       7.639  51.440 -35.149  0.00  0.00    +0.000 OA
ATOM      5  C10 UNL     1       5.663  52.026 -34.039  0.00  0.00    +0.000 A 
ATOM      6  C11 UNL     1       5.357  53.211 -34.782  0.00  0.00    +0.000 A 
ATOM      7  C12 UNL     1       4.207  53.944 -34.464  0.00  0.00    +0.000 A 
ATOM      8  C13 UNL     1       3.352  53.543 -33.435  0.00  0.00    +0.000 A 
ATOM      9  C14 UNL     1       3.641  52.392 -32.707  0.00  0.00    +0.000 A 
ATOM     10  C15 UNL     1       4.779  51.637 -32.997  0.00  0.00    +0.000 A 
ATOM     11  O2  UNL     1       5.012  50.547 -32.274  0.00  0.00    +0.000 OA
ENDROOT
BRANCH   1  17
ATOM     12  C1  UNL     1       5.359  47.420 -31.668  0.00  0.00    +0.000 A 
ATOM     13  C2  UNL     1       5.526  46.327 -30.811  0.00  0.00    +0.000 A 
ATOM     14  C3  UNL     1       6.529  46.341 -29.836  0.00  0.00    +0.000 A 
ATOM     15  C4  UNL     1       7.363  47.453 -29.721  0.00  0.00    +0.000 A 
ATOM     16  C5  UNL     1       7.201  48.548 -30.574  0.00  0.00    +0.000 A 
ATOM     17  C6  UNL     1       6.196  48.553 -31.564  0.00  0.00    +0.000 A 
BRANCH  14  18
ATOM     18  O5  UNL     1       6.703  45.258 -28.978  0.00  0.00    +0.000 OA
ATOM     19  H10 UNL     1       5.918  44.697 -28.667  0.00  0.00    +0.000 HD
ENDBRANCH  14  18
ENDBRANCH   1  17
BRANCH   8  20
ATOM     20  O3  UNL     1       2.212  54.282 -33.130  0.00  0.00    +0.000 OA
ATOM     21  H8  UNL     1       2.270  55.243 -32.815  0.00  0.00    +0.000 HD
ENDBRANCH   8  20
BRANCH   6  22
ATOM     22  O4  UNL     1       6.133  53.714 -35.831  0.00  0.00    +0.000 OA
ATOM     23  H9  UNL     1       7.032  53.373 -36.127  0.00  0.00    +0.000 HD
ENDBRANCH   6  22
TORSDOF 4
ENDMDL
MODEL 5
REMARK VINA RESULT:      -5.0      1.310      2.810
REMARK  Name = .\Apigenin.pdb
REMARK  4 active torsions:
REMARK  status: ('A' for Active; 'I' for Inactive)
REMARK    1  A    between atoms: C3_3  and  O5_20
REMARK    2  A    between atoms: C6_6  and  C7_7
REMARK    3  A    between atoms: C11_12  and  O4_19
REMARK    4  A    between atoms: C13_14  and  O3_18
REMARK                            x       y       z     vdW  Elec       q    Type
REMARK                         _______ _______ _______ _____ _____    ______ ____
ROOT
ATOM      1  C7  UNL     1       6.289  50.971 -33.284  0.00  0.00    +0.000 A 
ATOM      2  C8  UNL     1       6.789  51.450 -34.505  0.00  0.00    +0.000 A 
ATOM      3  C9  UNL     1       6.591  52.785 -34.863  0.00  0.00    +0.000 A 
ATOM      4  O1  UNL     1       7.054  53.173 -35.965  0.00  0.00    +0.000 OA
ATOM      5  C10 UNL     1       5.885  53.653 -33.994  0.00  0.00    +0.000 A 
ATOM      6  C11 UNL     1       5.619  55.036 -34.248  0.00  0.00    +0.000 A 
ATOM      7  C12 UNL     1       4.908  55.785 -33.302  0.00  0.00    +0.000 A 
ATOM      8  C13 UNL     1       4.453  55.208 -32.114  0.00  0.00    +0.000 A 
ATOM      9  C14 UNL     1       4.707  53.864 -31.858  0.00  0.00    +0.000 A 
ATOM     10  C15 UNL     1       5.413  53.088 -32.780  0.00  0.00    +0.000 A 
ATOM     11  O2  UNL     1       5.631  51.810 -32.490  0.00  0.00    +0.000 OA
ENDROOT
BRANCH   1  17
ATOM     12  C1  UNL     1       5.651  48.968 -31.831  0.00  0.00    +0.000 A 
ATOM     13  C2  UNL     1       5.851  47.640 -31.440  0.00  0.00    +0.000 A 
ATOM     14  C3  UNL     1       6.858  46.873 -32.033  0.00  0.00    +0.000 A 
ATOM     15  C4  UNL     1       7.666  47.440 -33.020  0.00  0.00    +0.000 A 
ATOM     16  C5  UNL     1       7.471  48.766 -33.415  0.00  0.00    +0.000 A 
ATOM     17  C6  UNL     1       6.460  49.556 -32.829  0.00  0.00    +0.000 A 
BRANCH  14  18
ATOM     18  O5  UNL     1       7.065  45.550 -31.650  0.00  0.00    +0.000 OA
ATOM     19  H10 UNL     1       7.815  45.293 -31.017  0.00  0.00    +0.000 HD
ENDBRANCH  14  18
ENDBRANCH   1  17
BRANCH   8  20
ATOM     20  O3  UNL     1       3.747  55.965 -31.182  0.00  0.00    +0.000 OA
ATOM     21  H8  UNL     1       3.919  56.956 -31.063  0.00  0.00    +0.000 HD
ENDBRANCH   8  20
BRANCH   6  22
ATOM     22  O4  UNL     1       6.021  55.725 -35.397  0.00  0.00    +0.000 OA
ATOM     23  H9  UNL     1       5.425  56.036 -36.147  0.00  0.00    +0.000 HD
ENDBRANCH   6  22
TORSDOF 4
ENDMDL
MODEL 6
REMARK VINA RESULT:      -4.9      1.902      2.866
REMARK  Name = .\Apigenin.pdb
REMARK  4 active torsions:
REMARK  status: ('A' for Active; 'I' for Inactive)
REMARK    1  A    between atoms: C3_3  and  O5_20
REMARK    2  A    between atoms: C6_6  and  C7_7
REMARK    3  A    between atoms: C11_12  and  O4_19
REMARK    4  A    between atoms: C13_14  and  O3_18
REMARK                            x       y       z     vdW  Elec       q    Type
REMARK                         _______ _______ _______ _____ _____    ______ ____
ROOT
ATOM      1  C7  UNL     1       5.990  48.799 -31.315  0.00  0.00    +0.000 A 
ATOM      2  C8  UNL     1       6.817  49.381 -30.341  0.00  0.00    +0.000 A 
ATOM      3  C9  UNL     1       6.776  50.760 -30.126  0.00  0.00    +0.000 A 
ATOM      4  O1  UNL     1       7.533  51.241 -29.246  0.00  0.00    +0.000 OA
ATOM      5  C10 UNL     1       5.901  51.569 -30.892  0.00  0.00    +0.000 A 
ATOM      6  C11 UNL     1       5.768  52.989 -30.765  0.00  0.00    +0.000 A 
ATOM      7  C12 UNL     1       4.862  53.672 -31.586  0.00  0.00    +0.000 A 
ATOM      8  C13 UNL     1       4.083  52.994 -32.526  0.00  0.00    +0.000 A 
ATOM      9  C14 UNL     1       4.205  51.613 -32.657  0.00  0.00    +0.000 A 
ATOM     10  C15 UNL     1       5.099  50.901 -31.855  0.00  0.00    +0.000 A 
ATOM     11  O2  UNL     1       5.179  49.585 -32.017  0.00  0.00    +0.000 OA
ENDROOT
BRANCH   1  17
ATOM     12  C1  UNL     1       4.785  46.572 -31.654  0.00  0.00    +0.000 A 
ATOM     13  C2  UNL     1       4.824  45.201 -31.929  0.00  0.00    +0.000 A 
ATOM     14  C3  UNL     1       6.046  44.561 -32.158  0.00  0.00    +0.000 A 
ATOM     15  C4  UNL     1       7.230  45.297 -32.112  0.00  0.00    +0.000 A 
ATOM     16  C5  UNL     1       7.198  46.667 -31.838  0.00  0.00    +0.000 A 
ATOM     17  C6  UNL     1       5.975  47.331 -31.604  0.00  0.00    +0.000 A 
BRANCH  14  18
ATOM     18  O5  UNL     1       6.094  43.196 -32.432  0.00  0.00    +0.000 OA
ATOM     19  H10 UNL     1       5.671  42.516 -31.811  0.00  0.00    +0.000 HD
ENDBRANCH  14  18
ENDBRANCH   1  17
BRANCH   8  20
ATOM     20  O3  UNL     1       3.186  53.685 -33.336  0.00  0.00    +0.000 OA
ATOM     21  H8  UNL     1       2.289  53.290 -33.593  0.00  0.00    +0.000 HD
ENDBRANCH   8  20
BRANCH   6  22
ATOM     22  O4  UNL     1       6.490  53.777 -29.862  0.00  0.00    +0.000 OA
ATOM     23  H9  UNL     1       6.452  54.780 -29.781  0.00  0.00    +0.000 HD
ENDBRANCH   6  22
TORSDOF 4
ENDMDL
MODEL 7
REMARK VINA RESULT:      -4.6      1.959      6.700
REMARK  Name = .\Apigenin.pdb
REMARK  4 active torsions:
REMARK  status: ('A' for Active; 'I' for Inactive)
REMARK    1  A    between atoms: C3_3  and  O5_20
REMARK    2  A    between atoms: C6_6  and  C7_7
REMARK    3  A    between atoms: C11_12  and  O4_19
REMARK    4  A    between atoms: C13_14  and  O3_18
REMARK                            x       y       z     vdW  Elec       q    Type
REMARK                         _______ _______ _______ _____ _____    ______ ____
ROOT
ATOM      1  C7  UNL     1       5.846  51.060 -32.372  0.00  0.00    +0.000 A 
ATOM      2  C8  UNL     1       6.039  51.322 -31.006  0.00  0.00    +0.000 A 
ATOM      3  C9  UNL     1       6.526  50.319 -30.167  0.00  0.00    +0.000 A 
ATOM      4  O1  UNL     1       6.683  50.596 -28.951  0.00  0.00    +0.000 OA
ATOM      5  C10 UNL     1       6.824  49.039 -30.693  0.00  0.00    +0.000 A 
ATOM      6  C11 UNL     1       7.327  47.933 -29.936  0.00  0.00    +0.000 A 
ATOM      7  C12 UNL     1       7.581  46.716 -30.581  0.00  0.00    +0.000 A 
ATOM      8  C13 UNL     1       7.354  46.561 -31.950  0.00  0.00    +0.000 A 
ATOM      9  C14 UNL     1       6.866  47.630 -32.695  0.00  0.00    +0.000 A 
ATOM     10  C15 UNL     1       6.601  48.857 -32.084  0.00  0.00    +0.000 A 
ATOM     11  O2  UNL     1       6.136  49.848 -32.836  0.00  0.00    +0.000 OA
ENDROOT
BRANCH   1  17
ATOM     12  C1  UNL     1       4.010  52.060 -33.840  0.00  0.00    +0.000 A 
ATOM     13  C2  UNL     1       3.574  53.038 -34.741  0.00  0.00    +0.000 A 
ATOM     14  C3  UNL     1       4.443  54.052 -35.157  0.00  0.00    +0.000 A 
ATOM     15  C4  UNL     1       5.749  54.085 -34.668  0.00  0.00    +0.000 A 
ATOM     16  C5  UNL     1       6.190  53.112 -33.769  0.00  0.00    +0.000 A 
ATOM     17  C6  UNL     1       5.330  52.080 -33.336  0.00  0.00    +0.000 A 
BRANCH  14  18
ATOM     18  O5  UNL     1       4.018  55.030 -36.054  0.00  0.00    +0.000 OA
ATOM     19  H10 UNL     1       3.049  55.098 -36.344  0.00  0.00    +0.000 HD
ENDBRANCH  14  18
ENDBRANCH   1  17
BRANCH   8  20
ATOM     20  O3  UNL     1       7.611  45.345 -32.580  0.00  0.00    +0.000 OA
ATOM     21  H8  UNL     1       7.092  45.050 -33.398  0.00  0.00    +0.000 HD
ENDBRANCH   8  20
BRANCH   6  22
ATOM     22  O4  UNL     1       7.594  47.964 -28.563  0.00  0.00    +0.000 OA
ATOM     23  H9  UNL     1       8.502  48.008 -28.132  0.00  0.00    +0.000 HD
ENDBRANCH   6  22
TORSDOF 4
ENDMDL
MODEL 8
REMARK VINA RESULT:      -4.4      2.526      8.517
REMARK  Name = .\Apigenin.pdb
REMARK  4 active torsions:
REMARK  status: ('A' for Active; 'I' for Inactive)
REMARK    1  A    between atoms: C3_3  and  O5_20
REMARK    2  A    between atoms: C6_6  and  C7_7
REMARK    3  A    between atoms: C11_12  and  O4_19
REMARK    4  A    between atoms: C13_14  and  O3_18
REMARK                            x       y       z     vdW  Elec       q    Type
REMARK                         _______ _______ _______ _____ _____    ______ ____
ROOT
ATOM      1  C7  UNL     1       5.932  47.653 -31.943  0.00  0.00    +0.000 A 
ATOM      2  C8  UNL     1       6.861  46.959 -32.734  0.00  0.00    +0.000 A 
ATOM      3  C9  UNL     1       6.817  45.566 -32.800  0.00  0.00    +0.000 A 
ATOM      4  O1  UNL     1       7.667  44.984 -33.519  0.00  0.00    +0.000 OA
ATOM      5  C10 UNL     1       5.836  44.854 -32.066  0.00  0.00    +0.000 A 
ATOM      6  C11 UNL     1       5.690  43.430 -32.051  0.00  0.00    +0.000 A 
ATOM      7  C12 UNL     1       4.674  42.851 -31.281  0.00  0.00    +0.000 A 
ATOM      8  C13 UNL     1       3.799  43.636 -30.527  0.00  0.00    +0.000 A 
ATOM      9  C14 UNL     1       3.934  45.021 -30.534  0.00  0.00    +0.000 A 
ATOM     10  C15 UNL     1       4.936  45.632 -31.291  0.00  0.00    +0.000 A 
ATOM     11  O2  UNL     1       5.024  46.957 -31.266  0.00  0.00    +0.000 OA
ENDROOT
BRANCH   1  17
ATOM     12  C1  UNL     1       4.719  49.899 -31.828  0.00  0.00    +0.000 A 
ATOM     13  C2  UNL     1       4.754  51.293 -31.712  0.00  0.00    +0.000 A 
ATOM     14  C3  UNL     1       5.977  51.960 -31.586  0.00  0.00    +0.000 A 
ATOM     15  C4  UNL     1       7.164  51.229 -31.578  0.00  0.00    +0.000 A 
ATOM     16  C5  UNL     1       7.136  49.837 -31.694  0.00  0.00    +0.000 A 
ATOM     17  C6  UNL     1       5.913  49.144 -31.821  0.00  0.00    +0.000 A 
BRANCH  14  18
ATOM     18  O5  UNL     1       6.021  53.348 -31.470  0.00  0.00    +0.000 OA
ATOM     19  H10 UNL     1       5.574  53.951 -32.151  0.00  0.00    +0.000 HD
ENDBRANCH  14  18
ENDBRANCH   1  17
BRANCH   8  20
ATOM     20  O3  UNL     1       2.793  43.046 -29.765  0.00  0.00    +0.000 OA
ATOM     21  H8  UNL     1       2.175  43.599 -29.183  0.00  0.00    +0.000 HD
ENDBRANCH   8  20
BRANCH   6  22
ATOM     22  O4  UNL     1       6.501  42.540 -32.763  0.00  0.00    +0.000 OA
ATOM     23  H9  UNL     1       6.190  41.756 -33.312  0.00  0.00    +0.000 HD
ENDBRANCH   6  22
TORSDOF 4
ENDMDL
MODEL 9
REMARK VINA RESULT:      -4.2      2.382      7.101
REMARK  Name = .\Apigenin.pdb
REMARK  4 active torsions:
REMARK  status: ('A' for Active; 'I' for Inactive)
REMARK    1  A    between atoms: C3_3  and  O5_20
REMARK    2  A    between atoms: C6_6  and  C7_7
REMARK    3  A    between atoms: C11_12  and  O4_19
REMARK    4  A    between atoms: C13_14  and  O3_18
REMARK                            x       y       z     vdW  Elec       q    Type
REMARK                         _______ _______ _______ _____ _____    ______ ____
ROOT
ATOM      1  C7  UNL     1       5.978  49.885 -31.896  0.00  0.00    +0.000 A 
ATOM      2  C8  UNL     1       6.686  50.019 -30.690  0.00  0.00    +0.000 A 
ATOM      3  C9  UNL     1       7.035  48.883 -29.958  0.00  0.00    +0.000 A 
ATOM      4  O1  UNL     1       7.667  49.047 -28.884  0.00  0.00    +0.000 OA
ATOM      5  C10 UNL     1       6.673  47.598 -30.431  0.00  0.00    +0.000 A 
ATOM      6  C11 UNL     1       6.972  46.363 -29.773  0.00  0.00    +0.000 A 
ATOM      7  C12 UNL     1       6.556  45.156 -30.350  0.00  0.00    +0.000 A 
ATOM      8  C13 UNL     1       5.856  45.135 -31.557  0.00  0.00    +0.000 A 
ATOM      9  C14 UNL     1       5.560  46.331 -32.206  0.00  0.00    +0.000 A 
ATOM     10  C15 UNL     1       5.959  47.551 -31.658  0.00  0.00    +0.000 A 
ATOM     11  O2  UNL     1       5.654  48.666 -32.314  0.00  0.00    +0.000 OA
ENDROOT
BRANCH   1  17
ATOM     12  C1  UNL     1       6.419  51.637 -33.704  0.00  0.00    +0.000 A 
ATOM     13  C2  UNL     1       5.989  52.727 -34.467  0.00  0.00    +0.000 A 
ATOM     14  C3  UNL     1       4.707  53.257 -34.283  0.00  0.00    +0.000 A 
ATOM     15  C4  UNL     1       3.857  52.691 -33.333  0.00  0.00    +0.000 A 
ATOM     16  C5  UNL     1       4.280  51.601 -32.567  0.00  0.00    +0.000 A 
ATOM     17  C6  UNL     1       5.569  51.052 -32.738  0.00  0.00    +0.000 A 
BRANCH  14  18
ATOM     18  O5  UNL     1       4.271  54.343 -35.037  0.00  0.00    +0.000 OA
ATOM     19  H10 UNL     1       4.398  54.375 -36.043  0.00  0.00    +0.000 HD
ENDBRANCH  14  18
ENDBRANCH   1  17
BRANCH   8  20
ATOM     20  O3  UNL     1       5.448  43.928 -32.121  0.00  0.00    +0.000 OA
ATOM     21  H8  UNL     1       5.747  43.646 -33.047  0.00  0.00    +0.000 HD
ENDBRANCH   8  20
BRANCH   6  22
ATOM     22  O4  UNL     1       7.666  46.254 -28.563  0.00  0.00    +0.000 OA
ATOM     23  H9  UNL     1       7.790  46.981 -27.878  0.00  0.00    +0.000 HD
ENDBRANCH   6  22
TORSDOF 4
ENDMDL
