MODEL 1
REMARK VINA RESULT:       1.2      0.000      0.000
REMARK  Name = .\Apigenin.pdb
REMARK  4 active torsions:
REMARK  status: ('A' for Active; 'I' for Inactive)
REMARK    1  A    between atoms: C3_3  and  O5_20
REMARK    2  A    between atoms: C6_6  and  C7_7
REMARK    3  A    between atoms: C11_12  and  O4_19
REMARK    4  A    between atoms: C13_14  and  O3_18
REMARK                            x       y       z     vdW  Elec       q    Type
REMARK                         _______ _______ _______ _____ _____    ______ ____
ROOT
ATOM      1  C7  UNL     1     -30.935  49.967   6.111  0.00  0.00    +0.000 A 
ATOM      2  C8  UNL     1     -32.224  49.715   6.607  0.00  0.00    +0.000 A 
ATOM      3  C9  UNL     1     -32.384  49.061   7.830  0.00  0.00    +0.000 A 
ATOM      4  O1  UNL     1     -33.556  48.855   8.236  0.00  0.00    +0.000 OA
ATOM      5  C10 UNL     1     -31.247  48.652   8.568  0.00  0.00    +0.000 A 
ATOM      6  C11 UNL     1     -31.282  47.976   9.829  0.00  0.00    +0.000 A 
ATOM      7  C12 UNL     1     -30.080  47.627  10.457  0.00  0.00    +0.000 A 
ATOM      8  C13 UNL     1     -28.846  47.926   9.875  0.00  0.00    +0.000 A 
ATOM      9  C14 UNL     1     -28.801  48.583   8.649  0.00  0.00    +0.000 A 
ATOM     10  C15 UNL     1     -29.981  48.946   7.996  0.00  0.00    +0.000 A 
ATOM     11  O2  UNL     1     -29.887  49.571   6.828  0.00  0.00    +0.000 OA
ENDROOT
BRANCH   1  17
ATOM     12  C1  UNL     1     -29.923  51.852   4.713  0.00  0.00    +0.000 A 
ATOM     13  C2  UNL     1     -29.712  52.464   3.474  0.00  0.00    +0.000 A 
ATOM     14  C3  UNL     1     -30.249  51.905   2.309  0.00  0.00    +0.000 A 
ATOM     15  C4  UNL     1     -30.998  50.730   2.390  0.00  0.00    +0.000 A 
ATOM     16  C5  UNL     1     -31.212  50.114   3.626  0.00  0.00    +0.000 A 
ATOM     17  C6  UNL     1     -30.679  50.662   4.811  0.00  0.00    +0.000 A 
BRANCH  14  18
ATOM     18  O5  UNL     1     -30.045  52.508   1.071  0.00  0.00    +0.000 OA
ATOM     19  H10 UNL     1     -29.124  52.814   0.776  0.00  0.00    +0.000 HD
ENDBRANCH  14  18
ENDBRANCH   1  17
BRANCH   8  20
ATOM     20  O3  UNL     1     -27.658  47.572  10.510  0.00  0.00    +0.000 OA
ATOM     21  H8  UNL     1     -26.755  47.767  10.093  0.00  0.00    +0.000 HD
ENDBRANCH   8  20
BRANCH   6  22
ATOM     22  O4  UNL     1     -32.452  47.624  10.510  0.00  0.00    +0.000 OA
ATOM     23  H9  UNL     1     -32.567  47.557  11.507  0.00  0.00    +0.000 HD
ENDBRANCH   6  22
TORSDOF 4
ENDMDL
MODEL 2
REMARK VINA RESULT:       2.8      1.055      2.688
REMARK  Name = .\Apigenin.pdb
REMARK  4 active torsions:
REMARK  status: ('A' for Active; 'I' for Inactive)
REMARK    1  A    between atoms: C3_3  and  O5_20
REMARK    2  A    between atoms: C6_6  and  C7_7
REMARK    3  A    between atoms: C11_12  and  O4_19
REMARK    4  A    between atoms: C13_14  and  O3_18
REMARK                            x       y       z     vdW  Elec       q    Type
REMARK                         _______ _______ _______ _____ _____    ______ ____
ROOT
ATOM      1  C7  UNL     1     -30.109  50.070   6.050  0.00  0.00    +0.000 A 
ATOM      2  C8  UNL     1     -28.856  49.817   6.632  0.00  0.00    +0.000 A 
ATOM      3  C9  UNL     1     -28.779  49.145   7.852  0.00  0.00    +0.000 A 
ATOM      4  O1  UNL     1     -27.639  48.939   8.339  0.00  0.00    +0.000 OA
ATOM      5  C10 UNL     1     -29.963  48.720   8.502  0.00  0.00    +0.000 A 
ATOM      6  C11 UNL     1     -30.014  48.024   9.752  0.00  0.00    +0.000 A 
ATOM      7  C12 UNL     1     -31.255  47.659  10.287  0.00  0.00    +0.000 A 
ATOM      8  C13 UNL     1     -32.447  47.959   9.624  0.00  0.00    +0.000 A 
ATOM      9  C14 UNL     1     -32.408  48.635   8.408  0.00  0.00    +0.000 A 
ATOM     10  C15 UNL     1     -31.188  49.015   7.846  0.00  0.00    +0.000 A 
ATOM     11  O2  UNL     1     -31.202  49.658   6.683  0.00  0.00    +0.000 OA
ENDROOT
BRANCH   1  17
ATOM     12  C1  UNL     1     -29.728  52.061   4.494  0.00  0.00    +0.000 A 
ATOM     13  C2  UNL     1     -29.913  52.686   3.256  0.00  0.00    +0.000 A 
ATOM     14  C3  UNL     1     -30.645  52.053   2.247  0.00  0.00    +0.000 A 
ATOM     15  C4  UNL     1     -31.192  50.791   2.480  0.00  0.00    +0.000 A 
ATOM     16  C5  UNL     1     -31.012  50.161   3.714  0.00  0.00    +0.000 A 
ATOM     17  C6  UNL     1     -30.276  50.783   4.745  0.00  0.00    +0.000 A 
BRANCH  14  18
ATOM     18  O5  UNL     1     -30.835  52.668   1.012  0.00  0.00    +0.000 OA
ATOM     19  H10 UNL     1     -30.882  53.677   0.924  0.00  0.00    +0.000 HD
ENDBRANCH  14  18
ENDBRANCH   1  17
BRANCH   8  20
ATOM     20  O3  UNL     1     -33.675  47.590  10.167  0.00  0.00    +0.000 OA
ATOM     21  H8  UNL     1     -34.157  46.750   9.869  0.00  0.00    +0.000 HD
ENDBRANCH   8  20
BRANCH   6  22
ATOM     22  O4  UNL     1     -28.893  47.667  10.509  0.00  0.00    +0.000 OA
ATOM     23  H9  UNL     1     -28.896  47.316  11.452  0.00  0.00    +0.000 HD
ENDBRANCH   6  22
TORSDOF 4
ENDMDL
MODEL 3
REMARK VINA RESULT:       4.1      3.211      5.766
REMARK  Name = .\Apigenin.pdb
REMARK  4 active torsions:
REMARK  status: ('A' for Active; 'I' for Inactive)
REMARK    1  A    between atoms: C3_3  and  O5_20
REMARK    2  A    between atoms: C6_6  and  C7_7
REMARK    3  A    between atoms: C11_12  and  O4_19
REMARK    4  A    between atoms: C13_14  and  O3_18
REMARK                            x       y       z     vdW  Elec       q    Type
REMARK                         _______ _______ _______ _____ _____    ______ ____
ROOT
ATOM      1  C7  UNL     1     -29.507  51.182   7.812  0.00  0.00    +0.000 A 
ATOM      2  C8  UNL     1     -30.474  50.478   8.546  0.00  0.00    +0.000 A 
ATOM      3  C9  UNL     1     -31.454  49.740   7.880  0.00  0.00    +0.000 A 
ATOM      4  O1  UNL     1     -32.301  49.125   8.575  0.00  0.00    +0.000 OA
ATOM      5  C10 UNL     1     -31.473  49.705   6.464  0.00  0.00    +0.000 A 
ATOM      6  C11 UNL     1     -32.423  48.988   5.669  0.00  0.00    +0.000 A 
ATOM      7  C12 UNL     1     -32.328  49.036   4.273  0.00  0.00    +0.000 A 
ATOM      8  C13 UNL     1     -31.323  49.770   3.640  0.00  0.00    +0.000 A 
ATOM      9  C14 UNL     1     -30.394  50.470   4.404  0.00  0.00    +0.000 A 
ATOM     10  C15 UNL     1     -30.460  50.444   5.798  0.00  0.00    +0.000 A 
ATOM     11  O2  UNL     1     -29.550  51.129   6.484  0.00  0.00    +0.000 OA
ENDROOT
BRANCH   1  17
ATOM     12  C1  UNL     1     -27.495  52.753   7.707  0.00  0.00    +0.000 A 
ATOM     13  C2  UNL     1     -26.500  53.496   8.352  0.00  0.00    +0.000 A 
ATOM     14  C3  UNL     1     -26.412  53.496   9.747  0.00  0.00    +0.000 A 
ATOM     15  C4  UNL     1     -27.323  52.750  10.496  0.00  0.00    +0.000 A 
ATOM     16  C5  UNL     1     -28.319  52.006   9.858  0.00  0.00    +0.000 A 
ATOM     17  C6  UNL     1     -28.425  51.993   8.451  0.00  0.00    +0.000 A 
BRANCH  14  18
ATOM     18  O5  UNL     1     -25.425  54.232  10.398  0.00  0.00    +0.000 OA
ATOM     19  H10 UNL     1     -24.480  53.878  10.499  0.00  0.00    +0.000 HD
ENDBRANCH  14  18
ENDBRANCH   1  17
BRANCH   8  20
ATOM     20  O3  UNL     1     -31.240  49.809   2.250  0.00  0.00    +0.000 OA
ATOM     21  H8  UNL     1     -31.847  50.404   1.699  0.00  0.00    +0.000 HD
ENDBRANCH   8  20
BRANCH   6  22
ATOM     22  O4  UNL     1     -33.472  48.219   6.185  0.00  0.00    +0.000 OA
ATOM     23  H9  UNL     1     -34.162  47.716   5.653  0.00  0.00    +0.000 HD
ENDBRANCH   6  22
TORSDOF 4
ENDMDL
