MODEL 1
REMARK VINA RESULT:      -6.5      0.000      0.000
REMARK  Name = .\Apigenin.pdb
REMARK  4 active torsions:
REMARK  status: ('A' for Active; 'I' for Inactive)
REMARK    1  A    between atoms: C3_3  and  O5_20
REMARK    2  A    between atoms: C6_6  and  C7_7
REMARK    3  A    between atoms: C11_12  and  O4_19
REMARK    4  A    between atoms: C13_14  and  O3_18
REMARK                            x       y       z     vdW  Elec       q    Type
REMARK                         _______ _______ _______ _____ _____    ______ ____
ROOT
ATOM      1  C7  UNL     1       9.363  48.033  32.555  0.00  0.00    +0.000 A 
ATOM      2  C8  UNL     1       9.392  49.087  33.481  0.00  0.00    +0.000 A 
ATOM      3  C9  UNL     1       9.916  50.326  33.111  0.00  0.00    +0.000 A 
ATOM      4  O1  UNL     1       9.923  51.242  33.971  0.00  0.00    +0.000 OA
ATOM      5  C10 UNL     1      10.420  50.518  31.801  0.00  0.00    +0.000 A 
ATOM      6  C11 UNL     1      10.981  51.737  31.304  0.00  0.00    +0.000 A 
ATOM      7  C12 UNL     1      11.445  51.794  29.983  0.00  0.00    +0.000 A 
ATOM      8  C13 UNL     1      11.369  50.683  29.141  0.00  0.00    +0.000 A 
ATOM      9  C14 UNL     1      10.825  49.492  29.615  0.00  0.00    +0.000 A 
ATOM     10  C15 UNL     1      10.354  49.401  30.926  0.00  0.00    +0.000 A 
ATOM     11  O2  UNL     1       9.843  48.244  31.333  0.00  0.00    +0.000 OA
ENDROOT
BRANCH   1  17
ATOM     12  C1  UNL     1       8.176  45.863  31.913  0.00  0.00    +0.000 A 
ATOM     13  C2  UNL     1       7.682  44.601  32.262  0.00  0.00    +0.000 A 
ATOM     14  C3  UNL     1       7.816  44.127  33.571  0.00  0.00    +0.000 A 
ATOM     15  C4  UNL     1       8.446  44.920  34.531  0.00  0.00    +0.000 A 
ATOM     16  C5  UNL     1       8.942  46.181  34.189  0.00  0.00    +0.000 A 
ATOM     17  C6  UNL     1       8.817  46.677  32.874  0.00  0.00    +0.000 A 
BRANCH  14  18
ATOM     18  O5  UNL     1       7.327  42.873  33.927  0.00  0.00    +0.000 OA
ATOM     19  H10 UNL     1       7.564  42.042  33.398  0.00  0.00    +0.000 HD
ENDBRANCH  14  18
ENDBRANCH   1  17
BRANCH   8  20
ATOM     20  O3  UNL     1      11.834  50.752  27.830  0.00  0.00    +0.000 OA
ATOM     21  H8  UNL     1      12.350  49.990  27.408  0.00  0.00    +0.000 HD
ENDBRANCH   8  20
BRANCH   6  22
ATOM     22  O4  UNL     1      11.111  52.915  32.048  0.00  0.00    +0.000 OA
ATOM     23  H9  UNL     1      11.547  53.006  32.950  0.00  0.00    +0.000 HD
ENDBRANCH   6  22
TORSDOF 4
ENDMDL
MODEL 2
REMARK VINA RESULT:      -6.1      1.641      3.431
REMARK  Name = .\Apigenin.pdb
REMARK  4 active torsions:
REMARK  status: ('A' for Active; 'I' for Inactive)
REMARK    1  A    between atoms: C3_3  and  O5_20
REMARK    2  A    between atoms: C6_6  and  C7_7
REMARK    3  A    between atoms: C11_12  and  O4_19
REMARK    4  A    between atoms: C13_14  and  O3_18
REMARK                            x       y       z     vdW  Elec       q    Type
REMARK                         _______ _______ _______ _____ _____    ______ ____
ROOT
ATOM      1  C7  UNL     1       9.303  48.143  33.063  0.00  0.00    +0.000 A 
ATOM      2  C8  UNL     1       9.773  48.728  31.876  0.00  0.00    +0.000 A 
ATOM      3  C9  UNL     1      10.229  50.047  31.884  0.00  0.00    +0.000 A 
ATOM      4  O1  UNL     1      10.641  50.533  30.801  0.00  0.00    +0.000 OA
ATOM      5  C10 UNL     1      10.216  50.793  33.088  0.00  0.00    +0.000 A 
ATOM      6  C11 UNL     1      10.655  52.149  33.223  0.00  0.00    +0.000 A 
ATOM      7  C12 UNL     1      10.589  52.773  34.475  0.00  0.00    +0.000 A 
ATOM      8  C13 UNL     1      10.103  52.097  35.596  0.00  0.00    +0.000 A 
ATOM      9  C14 UNL     1       9.672  50.779  35.475  0.00  0.00    +0.000 A 
ATOM     10  C15 UNL     1       9.724  50.127  34.242  0.00  0.00    +0.000 A 
ATOM     11  O2  UNL     1       9.303  48.868  34.177  0.00  0.00    +0.000 OA
ENDROOT
BRANCH   1  17
ATOM     12  C1  UNL     1       8.220  46.069  32.034  0.00  0.00    +0.000 A 
ATOM     13  C2  UNL     1       7.763  44.753  32.155  0.00  0.00    +0.000 A 
ATOM     14  C3  UNL     1       7.873  44.076  33.374  0.00  0.00    +0.000 A 
ATOM     15  C4  UNL     1       8.441  44.721  34.472  0.00  0.00    +0.000 A 
ATOM     16  C5  UNL     1       8.900  46.036  34.358  0.00  0.00    +0.000 A 
ATOM     17  C6  UNL     1       8.798  46.736  33.137  0.00  0.00    +0.000 A 
BRANCH  14  18
ATOM     18  O5  UNL     1       7.420  42.765  33.504  0.00  0.00    +0.000 OA
ATOM     19  H10 UNL     1       6.797  42.350  32.820  0.00  0.00    +0.000 HD
ENDBRANCH  14  18
ENDBRANCH   1  17
BRANCH   8  20
ATOM     20  O3  UNL     1      10.042  52.730  36.835  0.00  0.00    +0.000 OA
ATOM     21  H8  UNL     1      10.691  52.503  37.579  0.00  0.00    +0.000 HD
ENDBRANCH   8  20
BRANCH   6  22
ATOM     22  O4  UNL     1      11.161  52.928  32.177  0.00  0.00    +0.000 OA
ATOM     23  H9  UNL     1      11.980  52.731  31.626  0.00  0.00    +0.000 HD
ENDBRANCH   6  22
TORSDOF 4
ENDMDL
MODEL 3
REMARK VINA RESULT:      -5.9      1.857      2.634
REMARK  Name = .\Apigenin.pdb
REMARK  4 active torsions:
REMARK  status: ('A' for Active; 'I' for Inactive)
REMARK    1  A    between atoms: C3_3  and  O5_20
REMARK    2  A    between atoms: C6_6  and  C7_7
REMARK    3  A    between atoms: C11_12  and  O4_19
REMARK    4  A    between atoms: C13_14  and  O3_18
REMARK                            x       y       z     vdW  Elec       q    Type
REMARK                         _______ _______ _______ _____ _____    ______ ____
ROOT
ATOM      1  C7  UNL     1       9.041  47.761  34.212  0.00  0.00    +0.000 A 
ATOM      2  C8  UNL     1       8.741  48.319  35.465  0.00  0.00    +0.000 A 
ATOM      3  C9  UNL     1       9.041  49.657  35.720  0.00  0.00    +0.000 A 
ATOM      4  O1  UNL     1       8.756  50.118  36.855  0.00  0.00    +0.000 OA
ATOM      5  C10 UNL     1       9.650  50.450  34.717  0.00  0.00    +0.000 A 
ATOM      6  C11 UNL     1      10.006  51.829  34.859  0.00  0.00    +0.000 A 
ATOM      7  C12 UNL     1      10.605  52.499  33.785  0.00  0.00    +0.000 A 
ATOM      8  C13 UNL     1      10.861  51.848  32.576  0.00  0.00    +0.000 A 
ATOM      9  C14 UNL     1      10.519  50.507  32.429  0.00  0.00    +0.000 A 
ATOM     10  C15 UNL     1       9.921  49.808  33.479  0.00  0.00    +0.000 A 
ATOM     11  O2  UNL     1       9.612  48.530  33.290  0.00  0.00    +0.000 OA
ENDROOT
BRANCH   1  17
ATOM     12  C1  UNL     1       8.397  45.925  32.555  0.00  0.00    +0.000 A 
ATOM     13  C2  UNL     1       8.134  44.580  32.276  0.00  0.00    +0.000 A 
ATOM     14  C3  UNL     1       8.215  43.620  33.289  0.00  0.00    +0.000 A 
ATOM     15  C4  UNL     1       8.561  44.010  34.583  0.00  0.00    +0.000 A 
ATOM     16  C5  UNL     1       8.825  45.352  34.868  0.00  0.00    +0.000 A 
ATOM     17  C6  UNL     1       8.749  46.336  33.860  0.00  0.00    +0.000 A 
BRANCH  14  18
ATOM     18  O5  UNL     1       7.954  42.278  33.021  0.00  0.00    +0.000 OA
ATOM     19  H10 UNL     1       7.470  41.991  32.178  0.00  0.00    +0.000 HD
ENDBRANCH  14  18
ENDBRANCH   1  17
BRANCH   8  20
ATOM     20  O3  UNL     1      11.457  52.526  31.516  0.00  0.00    +0.000 OA
ATOM     21  H8  UNL     1      11.334  52.225  30.556  0.00  0.00    +0.000 HD
ENDBRANCH   8  20
BRANCH   6  22
ATOM     22  O4  UNL     1       9.801  52.589  36.016  0.00  0.00    +0.000 OA
ATOM     23  H9  UNL     1       9.798  53.593  36.078  0.00  0.00    +0.000 HD
ENDBRANCH   6  22
TORSDOF 4
ENDMDL
MODEL 4
REMARK VINA RESULT:      -5.8      2.904      6.947
REMARK  Name = .\Apigenin.pdb
REMARK  4 active torsions:
REMARK  status: ('A' for Active; 'I' for Inactive)
REMARK    1  A    between atoms: C3_3  and  O5_20
REMARK    2  A    between atoms: C6_6  and  C7_7
REMARK    3  A    between atoms: C11_12  and  O4_19
REMARK    4  A    between atoms: C13_14  and  O3_18
REMARK                            x       y       z     vdW  Elec       q    Type
REMARK                         _______ _______ _______ _____ _____    ______ ____
ROOT
ATOM      1  C7  UNL     1       8.953  48.902  34.070  0.00  0.00    +0.000 A 
ATOM      2  C8  UNL     1       8.549  49.017  32.730  0.00  0.00    +0.000 A 
ATOM      3  C9  UNL     1       8.163  47.880  32.019  0.00  0.00    +0.000 A 
ATOM      4  O1  UNL     1       7.809  48.027  30.822  0.00  0.00    +0.000 OA
ATOM      5  C10 UNL     1       8.182  46.612  32.649  0.00  0.00    +0.000 A 
ATOM      6  C11 UNL     1       7.811  45.377  32.028  0.00  0.00    +0.000 A 
ATOM      7  C12 UNL     1       7.875  44.188  32.765  0.00  0.00    +0.000 A 
ATOM      8  C13 UNL     1       8.292  44.184  34.098  0.00  0.00    +0.000 A 
ATOM      9  C14 UNL     1       8.655  45.380  34.711  0.00  0.00    +0.000 A 
ATOM     10  C15 UNL     1       8.604  46.583  34.005  0.00  0.00    +0.000 A 
ATOM     11  O2  UNL     1       8.959  47.698  34.634  0.00  0.00    +0.000 OA
ENDROOT
BRANCH   1  17
ATOM     12  C1  UNL     1       9.259  50.098  36.307  0.00  0.00    +0.000 A 
ATOM     13  C2  UNL     1       9.672  51.217  37.038  0.00  0.00    +0.000 A 
ATOM     14  C3  UNL     1      10.211  52.329  36.383  0.00  0.00    +0.000 A 
ATOM     15  C4  UNL     1      10.335  52.319  34.994  0.00  0.00    +0.000 A 
ATOM     16  C5  UNL     1       9.924  51.204  34.258  0.00  0.00    +0.000 A 
ATOM     17  C6  UNL     1       9.379  50.072  34.899  0.00  0.00    +0.000 A 
BRANCH  14  18
ATOM     18  O5  UNL     1      10.624  53.448  37.103  0.00  0.00    +0.000 OA
ATOM     19  H10 UNL     1      11.537  53.864  36.957  0.00  0.00    +0.000 HD
ENDBRANCH  14  18
ENDBRANCH   1  17
BRANCH   8  20
ATOM     20  O3  UNL     1       8.351  42.995  34.821  0.00  0.00    +0.000 OA
ATOM     21  H8  UNL     1       7.744  42.825  35.614  0.00  0.00    +0.000 HD
ENDBRANCH   8  20
BRANCH   6  22
ATOM     22  O4  UNL     1       7.378  45.252  30.703  0.00  0.00    +0.000 OA
ATOM     23  H9  UNL     1       6.842  45.926  30.184  0.00  0.00    +0.000 HD
ENDBRANCH   6  22
TORSDOF 4
ENDMDL
MODEL 5
REMARK VINA RESULT:      -5.6      1.568      7.097
REMARK  Name = .\Apigenin.pdb
REMARK  4 active torsions:
REMARK  status: ('A' for Active; 'I' for Inactive)
REMARK    1  A    between atoms: C3_3  and  O5_20
REMARK    2  A    between atoms: C6_6  and  C7_7
REMARK    3  A    between atoms: C11_12  and  O4_19
REMARK    4  A    between atoms: C13_14  and  O3_18
REMARK                            x       y       z     vdW  Elec       q    Type
REMARK                         _______ _______ _______ _____ _____    ______ ____
ROOT
ATOM      1  C7  UNL     1       9.417  48.518  31.611  0.00  0.00    +0.000 A 
ATOM      2  C8  UNL     1       8.521  47.871  30.746  0.00  0.00    +0.000 A 
ATOM      3  C9  UNL     1       7.878  46.702  31.156  0.00  0.00    +0.000 A 
ATOM      4  O1  UNL     1       7.084  46.154  30.351  0.00  0.00    +0.000 OA
ATOM      5  C10 UNL     1       8.133  46.170  32.444  0.00  0.00    +0.000 A 
ATOM      6  C11 UNL     1       7.538  44.982  32.977  0.00  0.00    +0.000 A 
ATOM      7  C12 UNL     1       7.877  44.563  34.270  0.00  0.00    +0.000 A 
ATOM      8  C13 UNL     1       8.783  45.283  35.050  0.00  0.00    +0.000 A 
ATOM      9  C14 UNL     1       9.367  46.439  34.541  0.00  0.00    +0.000 A 
ATOM     10  C15 UNL     1       9.052  46.885  33.256  0.00  0.00    +0.000 A 
ATOM     11  O2  UNL     1       9.635  47.994  32.813  0.00  0.00    +0.000 OA
ENDROOT
BRANCH   1  17
ATOM     12  C1  UNL     1      10.439  50.129  29.911  0.00  0.00    +0.000 A 
ATOM     13  C2  UNL     1      11.122  51.315  29.622  0.00  0.00    +0.000 A 
ATOM     14  C3  UNL     1      11.523  52.169  30.655  0.00  0.00    +0.000 A 
ATOM     15  C4  UNL     1      11.240  51.831  31.978  0.00  0.00    +0.000 A 
ATOM     16  C5  UNL     1      10.558  50.648  32.274  0.00  0.00    +0.000 A 
ATOM     17  C6  UNL     1      10.144  49.774  31.246  0.00  0.00    +0.000 A 
BRANCH  14  18
ATOM     18  O5  UNL     1      12.204  53.352  30.376  0.00  0.00    +0.000 OA
ATOM     19  H10 UNL     1      12.712  53.853  31.097  0.00  0.00    +0.000 HD
ENDBRANCH  14  18
ENDBRANCH   1  17
BRANCH   8  20
ATOM     20  O3  UNL     1       9.112  44.856  36.335  0.00  0.00    +0.000 OA
ATOM     21  H8  UNL     1       8.456  44.932  37.103  0.00  0.00    +0.000 HD
ENDBRANCH   8  20
BRANCH   6  22
ATOM     22  O4  UNL     1       6.619  44.177  32.295  0.00  0.00    +0.000 OA
ATOM     23  H9  UNL     1       5.746  43.829  32.656  0.00  0.00    +0.000 HD
ENDBRANCH   6  22
TORSDOF 4
ENDMDL
MODEL 6
REMARK VINA RESULT:      -5.5      2.992      6.413
REMARK  Name = .\Apigenin.pdb
REMARK  4 active torsions:
REMARK  status: ('A' for Active; 'I' for Inactive)
REMARK    1  A    between atoms: C3_3  and  O5_20
REMARK    2  A    between atoms: C6_6  and  C7_7
REMARK    3  A    between atoms: C11_12  and  O4_19
REMARK    4  A    between atoms: C13_14  and  O3_18
REMARK                            x       y       z     vdW  Elec       q    Type
REMARK                         _______ _______ _______ _____ _____    ______ ____
ROOT
ATOM      1  C7  UNL     1       9.082  48.583  34.505  0.00  0.00    +0.000 A 
ATOM      2  C8  UNL     1       9.152  47.341  35.156  0.00  0.00    +0.000 A 
ATOM      3  C9  UNL     1       8.806  46.176  34.470  0.00  0.00    +0.000 A 
ATOM      4  O1  UNL     1       8.883  45.085  35.089  0.00  0.00    +0.000 OA
ATOM      5  C10 UNL     1       8.383  46.248  33.121  0.00  0.00    +0.000 A 
ATOM      6  C11 UNL     1       8.003  45.128  32.314  0.00  0.00    +0.000 A 
ATOM      7  C12 UNL     1       7.603  45.338  30.989  0.00  0.00    +0.000 A 
ATOM      8  C13 UNL     1       7.568  46.621  30.437  0.00  0.00    +0.000 A 
ATOM      9  C14 UNL     1       7.936  47.716  31.213  0.00  0.00    +0.000 A 
ATOM     10  C15 UNL     1       8.339  47.543  32.538  0.00  0.00    +0.000 A 
ATOM     11  O2  UNL     1       8.681  48.619  33.238  0.00  0.00    +0.000 OA
ENDROOT
BRANCH   1  17
ATOM     12  C1  UNL     1       9.220  50.116  36.546  0.00  0.00    +0.000 A 
ATOM     13  C2  UNL     1       9.569  51.343  37.120  0.00  0.00    +0.000 A 
ATOM     14  C3  UNL     1      10.138  52.353  36.338  0.00  0.00    +0.000 A 
ATOM     15  C4  UNL     1      10.358  52.131  34.978  0.00  0.00    +0.000 A 
ATOM     16  C5  UNL     1      10.011  50.908  34.398  0.00  0.00    +0.000 A 
ATOM     17  C6  UNL     1       9.436  49.876  35.170  0.00  0.00    +0.000 A 
BRANCH  14  18
ATOM     18  O5  UNL     1      10.488  53.578  36.900  0.00  0.00    +0.000 OA
ATOM     19  H10 UNL     1      10.606  53.686  37.901  0.00  0.00    +0.000 HD
ENDBRANCH  14  18
ENDBRANCH   1  17
BRANCH   8  20
ATOM     20  O3  UNL     1       7.168  46.816  29.117  0.00  0.00    +0.000 OA
ATOM     21  H8  UNL     1       7.302  47.703  28.647  0.00  0.00    +0.000 HD
ENDBRANCH   8  20
BRANCH   6  22
ATOM     22  O4  UNL     1       7.996  43.799  32.752  0.00  0.00    +0.000 OA
ATOM     23  H9  UNL     1       7.556  43.021  32.291  0.00  0.00    +0.000 HD
ENDBRANCH   6  22
TORSDOF 4
ENDMDL
MODEL 7
REMARK VINA RESULT:      -5.5      1.169      1.727
REMARK  Name = .\Apigenin.pdb
REMARK  4 active torsions:
REMARK  status: ('A' for Active; 'I' for Inactive)
REMARK    1  A    between atoms: C3_3  and  O5_20
REMARK    2  A    between atoms: C6_6  and  C7_7
REMARK    3  A    between atoms: C11_12  and  O4_19
REMARK    4  A    between atoms: C13_14  and  O3_18
REMARK                            x       y       z     vdW  Elec       q    Type
REMARK                         _______ _______ _______ _____ _____    ______ ____
ROOT
ATOM      1  C7  UNL     1       9.414  47.680  33.811  0.00  0.00    +0.000 A 
ATOM      2  C8  UNL     1       9.496  48.760  34.704  0.00  0.00    +0.000 A 
ATOM      3  C9  UNL     1       9.811  50.034  34.229  0.00  0.00    +0.000 A 
ATOM      4  O1  UNL     1       9.876  50.973  35.062  0.00  0.00    +0.000 OA
ATOM      5  C10 UNL     1      10.048  50.235  32.847  0.00  0.00    +0.000 A 
ATOM      6  C11 UNL     1      10.377  51.489  32.240  0.00  0.00    +0.000 A 
ATOM      7  C12 UNL     1      10.587  51.551  30.857  0.00  0.00    +0.000 A 
ATOM      8  C13 UNL     1      10.479  50.412  30.057  0.00  0.00    +0.000 A 
ATOM      9  C14 UNL     1      10.159  49.188  30.637  0.00  0.00    +0.000 A 
ATOM     10  C15 UNL     1       9.944  49.090  32.013  0.00  0.00    +0.000 A 
ATOM     11  O2  UNL     1       9.640  47.900  32.520  0.00  0.00    +0.000 OA
ENDROOT
BRANCH   1  17
ATOM     12  C1  UNL     1       9.136  45.866  35.590  0.00  0.00    +0.000 A 
ATOM     13  C2  UNL     1       8.815  44.550  35.941  0.00  0.00    +0.000 A 
ATOM     14  C3  UNL     1       8.435  43.630  34.959  0.00  0.00    +0.000 A 
ATOM     15  C4  UNL     1       8.376  44.030  33.624  0.00  0.00    +0.000 A 
ATOM     16  C5  UNL     1       8.695  45.342  33.267  0.00  0.00    +0.000 A 
ATOM     17  C6  UNL     1       9.081  46.286  34.242  0.00  0.00    +0.000 A 
BRANCH  14  18
ATOM     18  O5  UNL     1       8.114  42.318  35.300  0.00  0.00    +0.000 OA
ATOM     19  H10 UNL     1       8.631  41.531  34.922  0.00  0.00    +0.000 HD
ENDBRANCH  14  18
ENDBRANCH   1  17
BRANCH   8  20
ATOM     20  O3  UNL     1      10.690  50.487  28.682  0.00  0.00    +0.000 OA
ATOM     21  H8  UNL     1      11.167  51.275  28.260  0.00  0.00    +0.000 HD
ENDBRANCH   8  20
BRANCH   6  22
ATOM     22  O4  UNL     1      10.513  52.696  32.934  0.00  0.00    +0.000 OA
ATOM     23  H9  UNL     1      10.950  52.824  33.832  0.00  0.00    +0.000 HD
ENDBRANCH   6  22
TORSDOF 4
ENDMDL
MODEL 8
REMARK VINA RESULT:      -5.5      2.290      6.928
REMARK  Name = .\Apigenin.pdb
REMARK  4 active torsions:
REMARK  status: ('A' for Active; 'I' for Inactive)
REMARK    1  A    between atoms: C3_3  and  O5_20
REMARK    2  A    between atoms: C6_6  and  C7_7
REMARK    3  A    between atoms: C11_12  and  O4_19
REMARK    4  A    between atoms: C13_14  and  O3_18
REMARK                            x       y       z     vdW  Elec       q    Type
REMARK                         _______ _______ _______ _____ _____    ______ ____
ROOT
ATOM      1  C7  UNL     1       9.712  48.799  33.009  0.00  0.00    +0.000 A 
ATOM      2  C8  UNL     1       8.968  48.892  31.822  0.00  0.00    +0.000 A 
ATOM      3  C9  UNL     1       8.159  47.827  31.423  0.00  0.00    +0.000 A 
ATOM      4  O1  UNL     1       7.510  47.951  30.353  0.00  0.00    +0.000 OA
ATOM      5  C10 UNL     1       8.091  46.654  32.213  0.00  0.00    +0.000 A 
ATOM      6  C11 UNL     1       7.301  45.499  31.910  0.00  0.00    +0.000 A 
ATOM      7  C12 UNL     1       7.324  44.402  32.780  0.00  0.00    +0.000 A 
ATOM      8  C13 UNL     1       8.102  44.412  33.939  0.00  0.00    +0.000 A 
ATOM      9  C14 UNL     1       8.873  45.530  34.243  0.00  0.00    +0.000 A 
ATOM     10  C15 UNL     1       8.875  46.641  33.398  0.00  0.00    +0.000 A 
ATOM     11  O2  UNL     1       9.627  47.685  33.731  0.00  0.00    +0.000 OA
ENDROOT
BRANCH   1  17
ATOM     12  C1  UNL     1      11.013  49.996  34.854  0.00  0.00    +0.000 A 
ATOM     13  C2  UNL     1      11.845  51.041  35.269  0.00  0.00    +0.000 A 
ATOM     14  C3  UNL     1      12.280  52.004  34.353  0.00  0.00    +0.000 A 
ATOM     15  C4  UNL     1      11.880  51.918  33.019  0.00  0.00    +0.000 A 
ATOM     16  C5  UNL     1      11.049  50.877  32.598  0.00  0.00    +0.000 A 
ATOM     17  C6  UNL     1      10.600  49.895  33.506  0.00  0.00    +0.000 A 
BRANCH  14  18
ATOM     18  O5  UNL     1      13.108  53.049  34.758  0.00  0.00    +0.000 OA
ATOM     19  H10 UNL     1      13.493  53.087  35.695  0.00  0.00    +0.000 HD
ENDBRANCH  14  18
ENDBRANCH   1  17
BRANCH   8  20
ATOM     20  O3  UNL     1       8.115  43.314  34.796  0.00  0.00    +0.000 OA
ATOM     21  H8  UNL     1       8.718  43.283  35.610  0.00  0.00    +0.000 HD
ENDBRANCH   8  20
BRANCH   6  22
ATOM     22  O4  UNL     1       6.484  45.369  30.782  0.00  0.00    +0.000 OA
ATOM     23  H9  UNL     1       6.105  44.512  30.414  0.00  0.00    +0.000 HD
ENDBRANCH   6  22
TORSDOF 4
ENDMDL
MODEL 9
REMARK VINA RESULT:      -5.5      2.755      6.667
REMARK  Name = .\Apigenin.pdb
REMARK  4 active torsions:
REMARK  status: ('A' for Active; 'I' for Inactive)
REMARK    1  A    between atoms: C3_3  and  O5_20
REMARK    2  A    between atoms: C6_6  and  C7_7
REMARK    3  A    between atoms: C11_12  and  O4_19
REMARK    4  A    between atoms: C13_14  and  O3_18
REMARK                            x       y       z     vdW  Elec       q    Type
REMARK                         _______ _______ _______ _____ _____    ______ ____
ROOT
ATOM      1  C7  UNL     1       9.857  48.572  33.918  0.00  0.00    +0.000 A 
ATOM      2  C8  UNL     1       9.924  47.626  34.953  0.00  0.00    +0.000 A 
ATOM      3  C9  UNL     1       9.262  46.404  34.824  0.00  0.00    +0.000 A 
ATOM      4  O1  UNL     1       9.347  45.586  35.774  0.00  0.00    +0.000 OA
ATOM      5  C10 UNL     1       8.522  46.121  33.650  0.00  0.00    +0.000 A 
ATOM      6  C11 UNL     1       7.802  44.909  33.401  0.00  0.00    +0.000 A 
ATOM      7  C12 UNL     1       7.109  44.756  32.194  0.00  0.00    +0.000 A 
ATOM      8  C13 UNL     1       7.107  45.763  31.227  0.00  0.00    +0.000 A 
ATOM      9  C14 UNL     1       7.804  46.945  31.459  0.00  0.00    +0.000 A 
ATOM     10  C15 UNL     1       8.505  47.131  32.652  0.00  0.00    +0.000 A 
ATOM     11  O2  UNL     1       9.155  48.277  32.828  0.00  0.00    +0.000 OA
ENDROOT
BRANCH   1  17
ATOM     12  C1  UNL     1       9.839  51.127  33.908  0.00  0.00    +0.000 A 
ATOM     13  C2  UNL     1      10.524  52.345  33.969  0.00  0.00    +0.000 A 
ATOM     14  C3  UNL     1      11.916  52.368  34.103  0.00  0.00    +0.000 A 
ATOM     15  C4  UNL     1      12.621  51.166  34.174  0.00  0.00    +0.000 A 
ATOM     16  C5  UNL     1      11.943  49.946  34.113  0.00  0.00    +0.000 A 
ATOM     17  C6  UNL     1      10.540  49.902  33.979  0.00  0.00    +0.000 A 
BRANCH  14  18
ATOM     18  O5  UNL     1      12.606  53.576  34.164  0.00  0.00    +0.000 OA
ATOM     19  H10 UNL     1      12.268  54.351  34.723  0.00  0.00    +0.000 HD
ENDBRANCH  14  18
ENDBRANCH   1  17
BRANCH   8  20
ATOM     20  O3  UNL     1       6.413  45.598  30.030  0.00  0.00    +0.000 OA
ATOM     21  H8  UNL     1       6.286  44.684  29.612  0.00  0.00    +0.000 HD
ENDBRANCH   8  20
BRANCH   6  22
ATOM     22  O4  UNL     1       7.729  43.831  34.289  0.00  0.00    +0.000 OA
ATOM     23  H9  UNL     1       7.182  42.995  34.171  0.00  0.00    +0.000 HD
ENDBRANCH   6  22
TORSDOF 4
ENDMDL
