MODEL 1
REMARK VINA RESULT:      -6.9      0.000      0.000
REMARK  Name = .\Apigenin.pdb
REMARK  4 active torsions:
REMARK  status: ('A' for Active; 'I' for Inactive)
REMARK    1  A    between atoms: C3_3  and  O5_20
REMARK    2  A    between atoms: C6_6  and  C7_7
REMARK    3  A    between atoms: C11_12  and  O4_19
REMARK    4  A    between atoms: C13_14  and  O3_18
REMARK                            x       y       z     vdW  Elec       q    Type
REMARK                         _______ _______ _______ _____ _____    ______ ____
ROOT
ATOM      1  C7  UNL     1     -10.885  51.228 -12.452  0.00  0.00    +0.000 A 
ATOM      2  C8  UNL     1     -11.008  50.209 -11.494  0.00  0.00    +0.000 A 
ATOM      3  C9  UNL     1     -11.606  48.996 -11.841  0.00  0.00    +0.000 A 
ATOM      4  O1  UNL     1     -11.697  48.111 -10.954  0.00  0.00    +0.000 OA
ATOM      5  C10 UNL     1     -12.089  48.796 -13.157  0.00  0.00    +0.000 A 
ATOM      6  C11 UNL     1     -12.719  47.601 -13.632  0.00  0.00    +0.000 A 
ATOM      7  C12 UNL     1     -13.152  47.533 -14.962  0.00  0.00    +0.000 A 
ATOM      8  C13 UNL     1     -12.980  48.609 -15.836  0.00  0.00    +0.000 A 
ATOM      9  C14 UNL     1     -12.369  49.775 -15.384  0.00  0.00    +0.000 A 
ATOM     10  C15 UNL     1     -11.926  49.877 -14.064  0.00  0.00    +0.000 A 
ATOM     11  O2  UNL     1     -11.348  51.010 -13.679  0.00  0.00    +0.000 OA
ENDROOT
BRANCH   1  17
ATOM     12  C1  UNL     1      -8.937  52.879 -12.548  0.00  0.00    +0.000 A 
ATOM     13  C2  UNL     1      -8.395  54.133 -12.251  0.00  0.00    +0.000 A 
ATOM     14  C3  UNL     1      -9.153  55.086 -11.563  0.00  0.00    +0.000 A 
ATOM     15  C4  UNL     1     -10.457  54.779 -11.173  0.00  0.00    +0.000 A 
ATOM     16  C5  UNL     1     -11.005  53.528 -11.467  0.00  0.00    +0.000 A 
ATOM     17  C6  UNL     1     -10.257  52.553 -12.160  0.00  0.00    +0.000 A 
BRANCH  14  18
ATOM     18  O5  UNL     1      -8.621  56.338 -11.262  0.00  0.00    +0.000 OA
ATOM     19  H10 UNL     1      -7.703  56.436 -10.843  0.00  0.00    +0.000 HD
ENDBRANCH  14  18
ENDBRANCH   1  17
BRANCH   8  20
ATOM     20  O3  UNL     1     -13.416  48.528 -17.156  0.00  0.00    +0.000 OA
ATOM     21  H8  UNL     1     -13.861  47.693 -17.519  0.00  0.00    +0.000 HD
ENDBRANCH   8  20
BRANCH   6  22
ATOM     22  O4  UNL     1     -12.947  46.460 -12.855  0.00  0.00    +0.000 OA
ATOM     23  H9  UNL     1     -12.374  46.129 -12.098  0.00  0.00    +0.000 HD
ENDBRANCH   6  22
TORSDOF 4
ENDMDL
MODEL 2
REMARK VINA RESULT:      -6.9      2.327      7.194
REMARK  Name = .\Apigenin.pdb
REMARK  4 active torsions:
REMARK  status: ('A' for Active; 'I' for Inactive)
REMARK    1  A    between atoms: C3_3  and  O5_20
REMARK    2  A    between atoms: C6_6  and  C7_7
REMARK    3  A    between atoms: C11_12  and  O4_19
REMARK    4  A    between atoms: C13_14  and  O3_18
REMARK                            x       y       z     vdW  Elec       q    Type
REMARK                         _______ _______ _______ _____ _____    ______ ____
ROOT
ATOM      1  C7  UNL     1      -9.628  51.688 -12.544  0.00  0.00    +0.000 A 
ATOM      2  C8  UNL     1      -9.954  52.995 -12.150  0.00  0.00    +0.000 A 
ATOM      3  C9  UNL     1      -8.965  53.981 -12.123  0.00  0.00    +0.000 A 
ATOM      4  O1  UNL     1      -9.299  55.138 -11.764  0.00  0.00    +0.000 OA
ATOM      5  C10 UNL     1      -7.636  53.660 -12.492  0.00  0.00    +0.000 A 
ATOM      6  C11 UNL     1      -6.539  54.579 -12.504  0.00  0.00    +0.000 A 
ATOM      7  C12 UNL     1      -5.270  54.131 -12.892  0.00  0.00    +0.000 A 
ATOM      8  C13 UNL     1      -5.054  52.803 -13.267  0.00  0.00    +0.000 A 
ATOM      9  C14 UNL     1      -6.114  51.902 -13.258  0.00  0.00    +0.000 A 
ATOM     10  C15 UNL     1      -7.392  52.315 -12.877  0.00  0.00    +0.000 A 
ATOM     11  O2  UNL     1      -8.372  51.417 -12.885  0.00  0.00    +0.000 OA
ENDROOT
BRANCH   1  17
ATOM     12  C1  UNL     1     -11.276  50.187 -13.795  0.00  0.00    +0.000 A 
ATOM     13  C2  UNL     1     -12.205  49.142 -13.795  0.00  0.00    +0.000 A 
ATOM     14  C3  UNL     1     -12.508  48.466 -12.609  0.00  0.00    +0.000 A 
ATOM     15  C4  UNL     1     -11.879  48.841 -11.421  0.00  0.00    +0.000 A 
ATOM     16  C5  UNL     1     -10.950  49.884 -11.414  0.00  0.00    +0.000 A 
ATOM     17  C6  UNL     1     -10.629  50.577 -12.600  0.00  0.00    +0.000 A 
BRANCH  14  18
ATOM     18  O5  UNL     1     -13.433  47.424 -12.599  0.00  0.00    +0.000 OA
ATOM     19  H10 UNL     1     -14.285  47.467 -13.146  0.00  0.00    +0.000 HD
ENDBRANCH  14  18
ENDBRANCH   1  17
BRANCH   8  20
ATOM     20  O3  UNL     1      -3.786  52.371 -13.650  0.00  0.00    +0.000 OA
ATOM     21  H8  UNL     1      -3.292  51.652 -13.135  0.00  0.00    +0.000 HD
ENDBRANCH   8  20
BRANCH   6  22
ATOM     22  O4  UNL     1      -6.629  55.930 -12.151  0.00  0.00    +0.000 OA
ATOM     23  H9  UNL     1      -6.575  56.309 -11.221  0.00  0.00    +0.000 HD
ENDBRANCH   6  22
TORSDOF 4
ENDMDL
MODEL 3
REMARK VINA RESULT:      -6.8      1.900      3.757
REMARK  Name = .\Apigenin.pdb
REMARK  4 active torsions:
REMARK  status: ('A' for Active; 'I' for Inactive)
REMARK    1  A    between atoms: C3_3  and  O5_20
REMARK    2  A    between atoms: C6_6  and  C7_7
REMARK    3  A    between atoms: C11_12  and  O4_19
REMARK    4  A    between atoms: C13_14  and  O3_18
REMARK                            x       y       z     vdW  Elec       q    Type
REMARK                         _______ _______ _______ _____ _____    ______ ____
ROOT
ATOM      1  C7  UNL     1      -9.520  53.301 -12.380  0.00  0.00    +0.000 A 
ATOM      2  C8  UNL     1      -8.984  53.297 -13.677  0.00  0.00    +0.000 A 
ATOM      3  C9  UNL     1      -9.148  52.178 -14.496  0.00  0.00    +0.000 A 
ATOM      4  O1  UNL     1      -8.652  52.216 -15.650  0.00  0.00    +0.000 OA
ATOM      5  C10 UNL     1      -9.854  51.048 -14.015  0.00  0.00    +0.000 A 
ATOM      6  C11 UNL     1     -10.087  49.845 -14.756  0.00  0.00    +0.000 A 
ATOM      7  C12 UNL     1     -10.803  48.799 -14.162  0.00  0.00    +0.000 A 
ATOM      8  C13 UNL     1     -11.295  48.906 -12.859  0.00  0.00    +0.000 A 
ATOM      9  C14 UNL     1     -11.073  50.071 -12.131  0.00  0.00    +0.000 A 
ATOM     10  C15 UNL     1     -10.363  51.134 -12.692  0.00  0.00    +0.000 A 
ATOM     11  O2  UNL     1     -10.178  52.225 -11.958  0.00  0.00    +0.000 OA
ENDROOT
BRANCH   1  17
ATOM     12  C1  UNL     1     -10.425  54.864 -10.572  0.00  0.00    +0.000 A 
ATOM     13  C2  UNL     1     -10.252  55.955  -9.715  0.00  0.00    +0.000 A 
ATOM     14  C3  UNL     1      -9.047  56.665  -9.708  0.00  0.00    +0.000 A 
ATOM     15  C4  UNL     1      -8.015  56.279 -10.564  0.00  0.00    +0.000 A 
ATOM     16  C5  UNL     1      -8.181  55.189 -11.422  0.00  0.00    +0.000 A 
ATOM     17  C6  UNL     1      -9.388  54.460 -11.443  0.00  0.00    +0.000 A 
BRANCH  14  18
ATOM     18  O5  UNL     1      -8.867  57.754  -8.859  0.00  0.00    +0.000 OA
ATOM     19  H10 UNL     1      -9.296  57.786  -7.941  0.00  0.00    +0.000 HD
ENDBRANCH  14  18
ENDBRANCH   1  17
BRANCH   8  20
ATOM     20  O3  UNL     1     -12.005  47.857 -12.280  0.00  0.00    +0.000 OA
ATOM     21  H8  UNL     1     -12.957  47.976 -11.955  0.00  0.00    +0.000 HD
ENDBRANCH   8  20
BRANCH   6  22
ATOM     22  O4  UNL     1      -9.646  49.619 -16.064  0.00  0.00    +0.000 OA
ATOM     23  H9  UNL     1     -10.203  49.285 -16.833  0.00  0.00    +0.000 HD
ENDBRANCH   6  22
TORSDOF 4
ENDMDL
MODEL 4
REMARK VINA RESULT:      -6.7      3.134      4.838
REMARK  Name = .\Apigenin.pdb
REMARK  4 active torsions:
REMARK  status: ('A' for Active; 'I' for Inactive)
REMARK    1  A    between atoms: C3_3  and  O5_20
REMARK    2  A    between atoms: C6_6  and  C7_7
REMARK    3  A    between atoms: C11_12  and  O4_19
REMARK    4  A    between atoms: C13_14  and  O3_18
REMARK                            x       y       z     vdW  Elec       q    Type
REMARK                         _______ _______ _______ _____ _____    ______ ____
ROOT
ATOM      1  C7  UNL     1      -6.818  53.266 -12.614  0.00  0.00    +0.000 A 
ATOM      2  C8  UNL     1      -6.451  51.948 -12.931  0.00  0.00    +0.000 A 
ATOM      3  C9  UNL     1      -7.416  51.046 -13.382  0.00  0.00    +0.000 A 
ATOM      4  O1  UNL     1      -7.046  49.877 -13.654  0.00  0.00    +0.000 OA
ATOM      5  C10 UNL     1      -8.764  51.461 -13.517  0.00  0.00    +0.000 A 
ATOM      6  C11 UNL     1      -9.840  50.632 -13.967  0.00  0.00    +0.000 A 
ATOM      7  C12 UNL     1     -11.131  51.167 -14.056  0.00  0.00    +0.000 A 
ATOM      8  C13 UNL     1     -11.389  52.497 -13.715  0.00  0.00    +0.000 A 
ATOM      9  C14 UNL     1     -10.349  53.311 -13.276  0.00  0.00    +0.000 A 
ATOM     10  C15 UNL     1      -9.050  52.809 -13.175  0.00  0.00    +0.000 A 
ATOM     11  O2  UNL     1      -8.091  53.625 -12.751  0.00  0.00    +0.000 OA
ENDROOT
BRANCH   1  17
ATOM     12  C1  UNL     1      -4.446  54.151 -12.270  0.00  0.00    +0.000 A 
ATOM     13  C2  UNL     1      -3.576  55.139 -11.797  0.00  0.00    +0.000 A 
ATOM     14  C3  UNL     1      -4.081  56.284 -11.172  0.00  0.00    +0.000 A 
ATOM     15  C4  UNL     1      -5.459  56.436 -11.021  0.00  0.00    +0.000 A 
ATOM     16  C5  UNL     1      -6.333  55.453 -11.492  0.00  0.00    +0.000 A 
ATOM     17  C6  UNL     1      -5.844  54.292 -12.126  0.00  0.00    +0.000 A 
BRANCH  14  18
ATOM     18  O5  UNL     1      -3.223  57.273 -10.696  0.00  0.00    +0.000 OA
ATOM     19  H10 UNL     1      -2.226  57.239 -10.875  0.00  0.00    +0.000 HD
ENDBRANCH  14  18
ENDBRANCH   1  17
BRANCH   8  20
ATOM     20  O3  UNL     1     -12.677  53.017 -13.808  0.00  0.00    +0.000 OA
ATOM     21  H8  UNL     1     -12.886  53.970 -13.536  0.00  0.00    +0.000 HD
ENDBRANCH   8  20
BRANCH   6  22
ATOM     22  O4  UNL     1      -9.709  49.289 -14.337  0.00  0.00    +0.000 OA
ATOM     23  H9  UNL     1      -9.279  48.939 -15.177  0.00  0.00    +0.000 HD
ENDBRANCH   6  22
TORSDOF 4
ENDMDL
MODEL 5
REMARK VINA RESULT:      -6.7      2.005      7.054
REMARK  Name = .\Apigenin.pdb
REMARK  4 active torsions:
REMARK  status: ('A' for Active; 'I' for Inactive)
REMARK    1  A    between atoms: C3_3  and  O5_20
REMARK    2  A    between atoms: C6_6  and  C7_7
REMARK    3  A    between atoms: C11_12  and  O4_19
REMARK    4  A    between atoms: C13_14  and  O3_18
REMARK                            x       y       z     vdW  Elec       q    Type
REMARK                         _______ _______ _______ _____ _____    ______ ____
ROOT
ATOM      1  C7  UNL     1     -11.216  49.162 -13.887  0.00  0.00    +0.000 A 
ATOM      2  C8  UNL     1     -10.311  49.341 -14.945  0.00  0.00    +0.000 A 
ATOM      3  C9  UNL     1      -9.532  50.497 -15.007  0.00  0.00    +0.000 A 
ATOM      4  O1  UNL     1      -8.735  50.618 -15.971  0.00  0.00    +0.000 OA
ATOM      5  C10 UNL     1      -9.656  51.488 -14.003  0.00  0.00    +0.000 A 
ATOM      6  C11 UNL     1      -8.915  52.712 -13.957  0.00  0.00    +0.000 A 
ATOM      7  C12 UNL     1      -9.134  53.610 -12.905  0.00  0.00    +0.000 A 
ATOM      8  C13 UNL     1     -10.062  53.334 -11.898  0.00  0.00    +0.000 A 
ATOM      9  C14 UNL     1     -10.787  52.147 -11.934  0.00  0.00    +0.000 A 
ATOM     10  C15 UNL     1     -10.594  51.230 -12.969  0.00  0.00    +0.000 A 
ATOM     11  O2  UNL     1     -11.310  50.110 -12.960  0.00  0.00    +0.000 OA
ENDROOT
BRANCH   1  17
ATOM     12  C1  UNL     1     -11.566  46.652 -13.555  0.00  0.00    +0.000 A 
ATOM     13  C2  UNL     1     -12.421  45.553 -13.432  0.00  0.00    +0.000 A 
ATOM     14  C3  UNL     1     -13.808  45.725 -13.500  0.00  0.00    +0.000 A 
ATOM     15  C4  UNL     1     -14.335  47.002 -13.692  0.00  0.00    +0.000 A 
ATOM     16  C5  UNL     1     -13.487  48.104 -13.816  0.00  0.00    +0.000 A 
ATOM     17  C6  UNL     1     -12.086  47.952 -13.749  0.00  0.00    +0.000 A 
BRANCH  14  18
ATOM     18  O5  UNL     1     -14.667  44.635 -13.379  0.00  0.00    +0.000 OA
ATOM     19  H10 UNL     1     -14.336  43.684 -13.497  0.00  0.00    +0.000 HD
ENDBRANCH  14  18
ENDBRANCH   1  17
BRANCH   8  20
ATOM     20  O3  UNL     1     -10.270  54.236 -10.857  0.00  0.00    +0.000 OA
ATOM     21  H8  UNL     1     -11.158  54.708 -10.733  0.00  0.00    +0.000 HD
ENDBRANCH   8  20
BRANCH   6  22
ATOM     22  O4  UNL     1      -7.961  53.100 -14.903  0.00  0.00    +0.000 OA
ATOM     23  H9  UNL     1      -6.991  52.831 -14.919  0.00  0.00    +0.000 HD
ENDBRANCH   6  22
TORSDOF 4
ENDMDL
MODEL 6
REMARK VINA RESULT:      -6.7      2.107      6.872
REMARK  Name = .\Apigenin.pdb
REMARK  4 active torsions:
REMARK  status: ('A' for Active; 'I' for Inactive)
REMARK    1  A    between atoms: C3_3  and  O5_20
REMARK    2  A    between atoms: C6_6  and  C7_7
REMARK    3  A    between atoms: C11_12  and  O4_19
REMARK    4  A    between atoms: C13_14  and  O3_18
REMARK                            x       y       z     vdW  Elec       q    Type
REMARK                         _______ _______ _______ _____ _____    ______ ____
ROOT
ATOM      1  C7  UNL     1     -11.512  49.526 -14.110  0.00  0.00    +0.000 A 
ATOM      2  C8  UNL     1     -10.226  48.991 -13.929  0.00  0.00    +0.000 A 
ATOM      3  C9  UNL     1      -9.176  49.821 -13.535  0.00  0.00    +0.000 A 
ATOM      4  O1  UNL     1      -8.041  49.302 -13.386  0.00  0.00    +0.000 OA
ATOM      5  C10 UNL     1      -9.407  51.201 -13.320  0.00  0.00    +0.000 A 
ATOM      6  C11 UNL     1      -8.415  52.151 -12.916  0.00  0.00    +0.000 A 
ATOM      7  C12 UNL     1      -8.778  53.492 -12.737  0.00  0.00    +0.000 A 
ATOM      8  C13 UNL     1     -10.091  53.921 -12.943  0.00  0.00    +0.000 A 
ATOM      9  C14 UNL     1     -11.063  53.005 -13.336  0.00  0.00    +0.000 A 
ATOM     10  C15 UNL     1     -10.735  51.661 -13.524  0.00  0.00    +0.000 A 
ATOM     11  O2  UNL     1     -11.698  50.825 -13.899  0.00  0.00    +0.000 OA
ENDROOT
BRANCH   1  17
ATOM     12  C1  UNL     1     -13.737  48.358 -13.646  0.00  0.00    +0.000 A 
ATOM     13  C2  UNL     1     -14.817  47.586 -14.087  0.00  0.00    +0.000 A 
ATOM     14  C3  UNL     1     -14.874  47.143 -15.412  0.00  0.00    +0.000 A 
ATOM     15  C4  UNL     1     -13.846  47.474 -16.295  0.00  0.00    +0.000 A 
ATOM     16  C5  UNL     1     -12.765  48.245 -15.861  0.00  0.00    +0.000 A 
ATOM     17  C6  UNL     1     -12.689  48.703 -14.529  0.00  0.00    +0.000 A 
BRANCH  14  18
ATOM     18  O5  UNL     1     -15.945  46.373 -15.860  0.00  0.00    +0.000 OA
ATOM     19  H10 UNL     1     -15.956  45.365 -15.748  0.00  0.00    +0.000 HD
ENDBRANCH  14  18
ENDBRANCH   1  17
BRANCH   8  20
ATOM     20  O3  UNL     1     -10.438  55.257 -12.761  0.00  0.00    +0.000 OA
ATOM     21  H8  UNL     1      -9.822  56.009 -13.044  0.00  0.00    +0.000 HD
ENDBRANCH   8  20
BRANCH   6  22
ATOM     22  O4  UNL     1      -7.071  51.844 -12.679  0.00  0.00    +0.000 OA
ATOM     23  H9  UNL     1      -6.617  50.965 -12.862  0.00  0.00    +0.000 HD
ENDBRANCH   6  22
TORSDOF 4
ENDMDL
MODEL 7
REMARK VINA RESULT:      -6.7      2.559      6.981
REMARK  Name = .\Apigenin.pdb
REMARK  4 active torsions:
REMARK  status: ('A' for Active; 'I' for Inactive)
REMARK    1  A    between atoms: C3_3  and  O5_20
REMARK    2  A    between atoms: C6_6  and  C7_7
REMARK    3  A    between atoms: C11_12  and  O4_19
REMARK    4  A    between atoms: C13_14  and  O3_18
REMARK                            x       y       z     vdW  Elec       q    Type
REMARK                         _______ _______ _______ _____ _____    ______ ____
ROOT
ATOM      1  C7  UNL     1     -10.783  49.297 -13.106  0.00  0.00    +0.000 A 
ATOM      2  C8  UNL     1     -11.120  50.501 -12.468  0.00  0.00    +0.000 A 
ATOM      3  C9  UNL     1     -10.167  51.514 -12.344  0.00  0.00    +0.000 A 
ATOM      4  O1  UNL     1     -10.510  52.575 -11.765  0.00  0.00    +0.000 OA
ATOM      5  C10 UNL     1      -8.863  51.325 -12.861  0.00  0.00    +0.000 A 
ATOM      6  C11 UNL     1      -7.803  52.285 -12.796  0.00  0.00    +0.000 A 
ATOM      7  C12 UNL     1      -6.555  51.972 -13.349  0.00  0.00    +0.000 A 
ATOM      8  C13 UNL     1      -6.324  50.740 -13.965  0.00  0.00    +0.000 A 
ATOM      9  C14 UNL     1      -7.348  49.800 -14.033  0.00  0.00    +0.000 A 
ATOM     10  C15 UNL     1      -8.604  50.079 -13.492  0.00  0.00    +0.000 A 
ATOM     11  O2  UNL     1      -9.550  49.150 -13.582  0.00  0.00    +0.000 OA
ENDROOT
BRANCH   1  17
ATOM     12  C1  UNL     1     -13.131  48.360 -13.476  0.00  0.00    +0.000 A 
ATOM     13  C2  UNL     1     -13.991  47.268 -13.633  0.00  0.00    +0.000 A 
ATOM     14  C3  UNL     1     -13.489  45.964 -13.598  0.00  0.00    +0.000 A 
ATOM     15  C4  UNL     1     -12.124  45.755 -13.404  0.00  0.00    +0.000 A 
ATOM     16  C5  UNL     1     -11.259  46.841 -13.247  0.00  0.00    +0.000 A 
ATOM     17  C6  UNL     1     -11.746  48.165 -13.280  0.00  0.00    +0.000 A 
BRANCH  14  18
ATOM     18  O5  UNL     1     -14.338  44.870 -13.753  0.00  0.00    +0.000 OA
ATOM     19  H10 UNL     1     -14.273  44.059 -13.148  0.00  0.00    +0.000 HD
ENDBRANCH  14  18
ENDBRANCH   1  17
BRANCH   8  20
ATOM     20  O3  UNL     1      -5.078  50.441 -14.511  0.00  0.00    +0.000 OA
ATOM     21  H8  UNL     1      -4.932  49.616 -15.081  0.00  0.00    +0.000 HD
ENDBRANCH   8  20
BRANCH   6  22
ATOM     22  O4  UNL     1      -7.910  53.549 -12.207  0.00  0.00    +0.000 OA
ATOM     23  H9  UNL     1      -7.972  54.430 -12.690  0.00  0.00    +0.000 HD
ENDBRANCH   6  22
TORSDOF 4
ENDMDL
MODEL 8
REMARK VINA RESULT:      -6.6      1.502      2.789
REMARK  Name = .\Apigenin.pdb
REMARK  4 active torsions:
REMARK  status: ('A' for Active; 'I' for Inactive)
REMARK    1  A    between atoms: C3_3  and  O5_20
REMARK    2  A    between atoms: C6_6  and  C7_7
REMARK    3  A    between atoms: C11_12  and  O4_19
REMARK    4  A    between atoms: C13_14  and  O3_18
REMARK                            x       y       z     vdW  Elec       q    Type
REMARK                         _______ _______ _______ _____ _____    ______ ____
ROOT
ATOM      1  C7  UNL     1     -10.312  51.504 -13.197  0.00  0.00    +0.000 A 
ATOM      2  C8  UNL     1      -9.652  51.187 -14.395  0.00  0.00    +0.000 A 
ATOM      3  C9  UNL     1      -9.934  49.986 -15.048  0.00  0.00    +0.000 A 
ATOM      4  O1  UNL     1      -9.320  49.740 -16.117  0.00  0.00    +0.000 OA
ATOM      5  C10 UNL     1     -10.884  49.089 -14.501  0.00  0.00    +0.000 A 
ATOM      6  C11 UNL     1     -11.257  47.832 -15.075  0.00  0.00    +0.000 A 
ATOM      7  C12 UNL     1     -12.214  47.038 -14.431  0.00  0.00    +0.000 A 
ATOM      8  C13 UNL     1     -12.812  47.449 -13.238  0.00  0.00    +0.000 A 
ATOM      9  C14 UNL     1     -12.456  48.670 -12.672  0.00  0.00    +0.000 A 
ATOM     10  C15 UNL     1     -11.506  49.486 -13.288  0.00  0.00    +0.000 A 
ATOM     11  O2  UNL     1     -11.199  50.642 -12.709  0.00  0.00    +0.000 OA
ENDROOT
BRANCH   1  17
ATOM     12  C1  UNL     1     -11.031  53.351 -11.584  0.00  0.00    +0.000 A 
ATOM     13  C2  UNL     1     -10.753  54.537 -10.896  0.00  0.00    +0.000 A 
ATOM     14  C3  UNL     1      -9.513  55.166 -11.045  0.00  0.00    +0.000 A 
ATOM     15  C4  UNL     1      -8.552  54.605 -11.886  0.00  0.00    +0.000 A 
ATOM     16  C5  UNL     1      -8.823  53.421 -12.576  0.00  0.00    +0.000 A 
ATOM     17  C6  UNL     1     -10.067  52.770 -12.438  0.00  0.00    +0.000 A 
BRANCH  14  18
ATOM     18  O5  UNL     1      -9.228  56.347 -10.365  0.00  0.00    +0.000 OA
ATOM     19  H10 UNL     1      -8.508  56.388  -9.652  0.00  0.00    +0.000 HD
ENDBRANCH  14  18
ENDBRANCH   1  17
BRANCH   8  20
ATOM     20  O3  UNL     1     -13.763  46.649 -12.608  0.00  0.00    +0.000 OA
ATOM     21  H8  UNL     1     -14.296  46.984 -11.814  0.00  0.00    +0.000 HD
ENDBRANCH   8  20
BRANCH   6  22
ATOM     22  O4  UNL     1     -10.730  47.312 -16.263  0.00  0.00    +0.000 OA
ATOM     23  H9  UNL     1     -11.025  46.471 -16.729  0.00  0.00    +0.000 HD
ENDBRANCH   6  22
TORSDOF 4
ENDMDL
MODEL 9
REMARK VINA RESULT:      -6.4      3.787      7.080
REMARK  Name = .\Apigenin.pdb
REMARK  4 active torsions:
REMARK  status: ('A' for Active; 'I' for Inactive)
REMARK    1  A    between atoms: C3_3  and  O5_20
REMARK    2  A    between atoms: C6_6  and  C7_7
REMARK    3  A    between atoms: C11_12  and  O4_19
REMARK    4  A    between atoms: C13_14  and  O3_18
REMARK                            x       y       z     vdW  Elec       q    Type
REMARK                         _______ _______ _______ _____ _____    ______ ____
ROOT
ATOM      1  C7  UNL     1      -6.040  54.383 -12.170  0.00  0.00    +0.000 A 
ATOM      2  C8  UNL     1      -6.442  55.541 -11.487  0.00  0.00    +0.000 A 
ATOM      3  C9  UNL     1      -7.788  55.730 -11.169  0.00  0.00    +0.000 A 
ATOM      4  O1  UNL     1      -8.106  56.781 -10.557  0.00  0.00    +0.000 OA
ATOM      5  C10 UNL     1      -8.746  54.754 -11.537  0.00  0.00    +0.000 A 
ATOM      6  C11 UNL     1     -10.150  54.834 -11.269  0.00  0.00    +0.000 A 
ATOM      7  C12 UNL     1     -10.991  53.796 -11.689  0.00  0.00    +0.000 A 
ATOM      8  C13 UNL     1     -10.486  52.683 -12.364  0.00  0.00    +0.000 A 
ATOM      9  C14 UNL     1      -9.123  52.596 -12.630  0.00  0.00    +0.000 A 
ATOM     10  C15 UNL     1      -8.256  53.613 -12.226  0.00  0.00    +0.000 A 
ATOM     11  O2  UNL     1      -6.962  53.485 -12.502  0.00  0.00    +0.000 OA
ENDROOT
BRANCH   1  17
ATOM     12  C1  UNL     1      -4.246  53.571 -13.799  0.00  0.00    +0.000 A 
ATOM     13  C2  UNL     1      -2.902  53.330 -14.102  0.00  0.00    +0.000 A 
ATOM     14  C3  UNL     1      -1.905  53.617 -13.165  0.00  0.00    +0.000 A 
ATOM     15  C4  UNL     1      -2.256  54.146 -11.923  0.00  0.00    +0.000 A 
ATOM     16  C5  UNL     1      -3.597  54.388 -11.614  0.00  0.00    +0.000 A 
ATOM     17  C6  UNL     1      -4.618  54.107 -12.546  0.00  0.00    +0.000 A 
BRANCH  14  18
ATOM     18  O5  UNL     1      -0.564  53.380 -13.458  0.00  0.00    +0.000 OA
ATOM     19  H10 UNL     1      -0.258  52.505 -13.869  0.00  0.00    +0.000 HD
ENDBRANCH  14  18
ENDBRANCH   1  17
BRANCH   8  20
ATOM     20  O3  UNL     1     -11.334  51.657 -12.776  0.00  0.00    +0.000 OA
ATOM     21  H8  UNL     1     -11.603  50.907 -12.151  0.00  0.00    +0.000 HD
ENDBRANCH   8  20
BRANCH   6  22
ATOM     22  O4  UNL     1     -10.773  55.894 -10.603  0.00  0.00    +0.000 OA
ATOM     23  H9  UNL     1     -11.762  56.077 -10.563  0.00  0.00    +0.000 HD
ENDBRANCH   6  22
TORSDOF 4
ENDMDL
