MODEL 1
REMARK VINA RESULT:      -7.6      0.000      0.000
REMARK  Name = .\Apigenin.pdb
REMARK  4 active torsions:
REMARK  status: ('A' for Active; 'I' for Inactive)
REMARK    1  A    between atoms: C3_3  and  O5_20
REMARK    2  A    between atoms: C6_6  and  C7_7
REMARK    3  A    between atoms: C11_12  and  O4_19
REMARK    4  A    between atoms: C13_14  and  O3_18
REMARK                            x       y       z     vdW  Elec       q    Type
REMARK                         _______ _______ _______ _____ _____    ______ ____
ROOT
ATOM      1  C7  UNL     1     -12.926  77.130 104.575  0.00  0.00    +0.000 A 
ATOM      2  C8  UNL     1     -11.555  77.340 104.794  0.00  0.00    +0.000 A 
ATOM      3  C9  UNL     1     -11.132  78.413 105.580  0.00  0.00    +0.000 A 
ATOM      4  O1  UNL     1      -9.896  78.566 105.751  0.00  0.00    +0.000 OA
ATOM      5  C10 UNL     1     -12.086  79.288 106.154  0.00  0.00    +0.000 A 
ATOM      6  C11 UNL     1     -11.778  80.420 106.976  0.00  0.00    +0.000 A 
ATOM      7  C12 UNL     1     -12.820  81.206 107.483  0.00  0.00    +0.000 A 
ATOM      8  C13 UNL     1     -14.155  80.908 107.204  0.00  0.00    +0.000 A 
ATOM      9  C14 UNL     1     -14.465  79.810 106.406  0.00  0.00    +0.000 A 
ATOM     10  C15 UNL     1     -13.451  79.005 105.884  0.00  0.00    +0.000 A 
ATOM     11  O2  UNL     1     -13.797  77.968 105.128  0.00  0.00    +0.000 OA
ENDROOT
BRANCH   1  17
ATOM     12  C1  UNL     1     -14.448  75.109 104.213  0.00  0.00    +0.000 A 
ATOM     13  C2  UNL     1     -14.914  74.071 103.400  0.00  0.00    +0.000 A 
ATOM     14  C3  UNL     1     -14.404  73.903 102.108  0.00  0.00    +0.000 A 
ATOM     15  C4  UNL     1     -13.426  74.777 101.634  0.00  0.00    +0.000 A 
ATOM     16  C5  UNL     1     -12.956  75.816 102.442  0.00  0.00    +0.000 A 
ATOM     17  C6  UNL     1     -13.458  76.003 103.747  0.00  0.00    +0.000 A 
BRANCH  14  18
ATOM     18  O5  UNL     1     -14.861  72.872 101.291  0.00  0.00    +0.000 OA
ATOM     19  H10 UNL     1     -15.534  73.040 100.552  0.00  0.00    +0.000 HD
ENDBRANCH  14  18
ENDBRANCH   1  17
BRANCH   8  20
ATOM     20  O3  UNL     1     -15.181  81.698 107.715  0.00  0.00    +0.000 OA
ATOM     21  H8  UNL     1     -15.044  82.286 108.528  0.00  0.00    +0.000 HD
ENDBRANCH   8  20
BRANCH   6  22
ATOM     22  O4  UNL     1     -10.484  80.819 107.326  0.00  0.00    +0.000 OA
ATOM     23  H9  UNL     1     -10.112  81.753 107.274  0.00  0.00    +0.000 HD
ENDBRANCH   6  22
TORSDOF 4
ENDMDL
MODEL 2
REMARK VINA RESULT:      -7.2      1.791      1.998
REMARK  Name = .\Apigenin.pdb
REMARK  4 active torsions:
REMARK  status: ('A' for Active; 'I' for Inactive)
REMARK    1  A    between atoms: C3_3  and  O5_20
REMARK    2  A    between atoms: C6_6  and  C7_7
REMARK    3  A    between atoms: C11_12  and  O4_19
REMARK    4  A    between atoms: C13_14  and  O3_18
REMARK                            x       y       z     vdW  Elec       q    Type
REMARK                         _______ _______ _______ _____ _____    ______ ____
ROOT
ATOM      1  C7  UNL     1     -13.942  76.737 105.189  0.00  0.00    +0.000 A 
ATOM      2  C8  UNL     1     -12.581  76.640 104.859  0.00  0.00    +0.000 A 
ATOM      3  C9  UNL     1     -11.717  77.696 105.151  0.00  0.00    +0.000 A 
ATOM      4  O1  UNL     1     -10.506  77.568 104.839  0.00  0.00    +0.000 OA
ATOM      5  C10 UNL     1     -12.214  78.864 105.778  0.00  0.00    +0.000 A 
ATOM      6  C11 UNL     1     -11.430  80.010 106.127  0.00  0.00    +0.000 A 
ATOM      7  C12 UNL     1     -12.047  81.104 106.745  0.00  0.00    +0.000 A 
ATOM      8  C13 UNL     1     -13.414  81.099 107.031  0.00  0.00    +0.000 A 
ATOM      9  C14 UNL     1     -14.185  79.989 106.695  0.00  0.00    +0.000 A 
ATOM     10  C15 UNL     1     -13.602  78.882 106.077  0.00  0.00    +0.000 A 
ATOM     11  O2  UNL     1     -14.379  77.846 105.777  0.00  0.00    +0.000 OA
ENDROOT
BRANCH   1  17
ATOM     12  C1  UNL     1     -14.915  74.407 105.583  0.00  0.00    +0.000 A 
ATOM     13  C2  UNL     1     -15.863  73.422 105.286  0.00  0.00    +0.000 A 
ATOM     14  C3  UNL     1     -16.843  73.654 104.315  0.00  0.00    +0.000 A 
ATOM     15  C4  UNL     1     -16.871  74.876 103.642  0.00  0.00    +0.000 A 
ATOM     16  C5  UNL     1     -15.927  75.864 103.934  0.00  0.00    +0.000 A 
ATOM     17  C6  UNL     1     -14.931  75.650 104.910  0.00  0.00    +0.000 A 
BRANCH  14  18
ATOM     18  O5  UNL     1     -17.790  72.679 104.013  0.00  0.00    +0.000 OA
ATOM     19  H10 UNL     1     -17.738  72.138 103.157  0.00  0.00    +0.000 HD
ENDBRANCH  14  18
ENDBRANCH   1  17
BRANCH   8  20
ATOM     20  O3  UNL     1     -14.016  82.193 107.647  0.00  0.00    +0.000 OA
ATOM     21  H8  UNL     1     -14.350  82.148 108.602  0.00  0.00    +0.000 HD
ENDBRANCH   8  20
BRANCH   6  22
ATOM     22  O4  UNL     1     -10.056  80.135 105.893  0.00  0.00    +0.000 OA
ATOM     23  H9  UNL     1      -9.481  80.928 106.121  0.00  0.00    +0.000 HD
ENDBRANCH   6  22
TORSDOF 4
ENDMDL
MODEL 3
REMARK VINA RESULT:      -7.2      1.661      6.918
REMARK  Name = .\Apigenin.pdb
REMARK  4 active torsions:
REMARK  status: ('A' for Active; 'I' for Inactive)
REMARK    1  A    between atoms: C3_3  and  O5_20
REMARK    2  A    between atoms: C6_6  and  C7_7
REMARK    3  A    between atoms: C11_12  and  O4_19
REMARK    4  A    between atoms: C13_14  and  O3_18
REMARK                            x       y       z     vdW  Elec       q    Type
REMARK                         _______ _______ _______ _____ _____    ______ ____
ROOT
ATOM      1  C7  UNL     1     -13.443  76.917 104.458  0.00  0.00    +0.000 A 
ATOM      2  C8  UNL     1     -12.876  76.518 103.237  0.00  0.00    +0.000 A 
ATOM      3  C9  UNL     1     -13.429  75.450 102.529  0.00  0.00    +0.000 A 
ATOM      4  O1  UNL     1     -12.891  75.125 101.440  0.00  0.00    +0.000 OA
ATOM      5  C10 UNL     1     -14.559  74.769 103.044  0.00  0.00    +0.000 A 
ATOM      6  C11 UNL     1     -15.213  73.663 102.413  0.00  0.00    +0.000 A 
ATOM      7  C12 UNL     1     -16.326  73.078 103.030  0.00  0.00    +0.000 A 
ATOM      8  C13 UNL     1     -16.811  73.554 104.251  0.00  0.00    +0.000 A 
ATOM      9  C14 UNL     1     -16.181  74.629 104.872  0.00  0.00    +0.000 A 
ATOM     10  C15 UNL     1     -15.070  75.235 104.284  0.00  0.00    +0.000 A 
ATOM     11  O2  UNL     1     -14.503  76.258 104.915  0.00  0.00    +0.000 OA
ENDROOT
BRANCH   1  17
ATOM     12  C1  UNL     1     -11.538  78.382 105.327  0.00  0.00    +0.000 A 
ATOM     13  C2  UNL     1     -11.090  79.452 106.108  0.00  0.00    +0.000 A 
ATOM     14  C3  UNL     1     -11.998  80.214 106.850  0.00  0.00    +0.000 A 
ATOM     15  C4  UNL     1     -13.356  79.899 106.810  0.00  0.00    +0.000 A 
ATOM     16  C5  UNL     1     -13.810  78.831 106.032  0.00  0.00    +0.000 A 
ATOM     17  C6  UNL     1     -12.911  78.051 105.275  0.00  0.00    +0.000 A 
BRANCH  14  18
ATOM     18  O5  UNL     1     -11.561  81.282 107.631  0.00  0.00    +0.000 OA
ATOM     19  H10 UNL     1     -10.582  81.542 107.672  0.00  0.00    +0.000 HD
ENDBRANCH  14  18
ENDBRANCH   1  17
BRANCH   8  20
ATOM     20  O3  UNL     1     -17.918  72.963 104.854  0.00  0.00    +0.000 OA
ATOM     21  H8  UNL     1     -18.094  71.968 104.783  0.00  0.00    +0.000 HD
ENDBRANCH   8  20
BRANCH   6  22
ATOM     22  O4  UNL     1     -14.823  73.098 101.194  0.00  0.00    +0.000 OA
ATOM     23  H9  UNL     1     -15.364  73.077 100.345  0.00  0.00    +0.000 HD
ENDBRANCH   6  22
TORSDOF 4
ENDMDL
MODEL 4
REMARK VINA RESULT:      -6.8      1.499      3.036
REMARK  Name = .\Apigenin.pdb
REMARK  4 active torsions:
REMARK  status: ('A' for Active; 'I' for Inactive)
REMARK    1  A    between atoms: C3_3  and  O5_20
REMARK    2  A    between atoms: C6_6  and  C7_7
REMARK    3  A    between atoms: C11_12  and  O4_19
REMARK    4  A    between atoms: C13_14  and  O3_18
REMARK                            x       y       z     vdW  Elec       q    Type
REMARK                         _______ _______ _______ _____ _____    ______ ____
ROOT
ATOM      1  C7  UNL     1     -14.226  76.893 103.492  0.00  0.00    +0.000 A 
ATOM      2  C8  UNL     1     -15.147  77.924 103.735  0.00  0.00    +0.000 A 
ATOM      3  C9  UNL     1     -14.769  79.029 104.499  0.00  0.00    +0.000 A 
ATOM      4  O1  UNL     1     -15.625  79.930 104.693  0.00  0.00    +0.000 OA
ATOM      5  C10 UNL     1     -13.459  79.108 105.029  0.00  0.00    +0.000 A 
ATOM      6  C11 UNL     1     -12.955  80.186 105.825  0.00  0.00    +0.000 A 
ATOM      7  C12 UNL     1     -11.634  80.141 106.288  0.00  0.00    +0.000 A 
ATOM      8  C13 UNL     1     -10.797  79.064 105.988  0.00  0.00    +0.000 A 
ATOM      9  C14 UNL     1     -11.278  78.011 105.215  0.00  0.00    +0.000 A 
ATOM     10  C15 UNL     1     -12.590  78.024 104.737  0.00  0.00    +0.000 A 
ATOM     11  O2  UNL     1     -13.003  76.996 104.003  0.00  0.00    +0.000 OA
ENDROOT
BRANCH   1  17
ATOM     12  C1  UNL     1     -15.868  75.182 102.540  0.00  0.00    +0.000 A 
ATOM     13  C2  UNL     1     -16.121  74.040 101.772  0.00  0.00    +0.000 A 
ATOM     14  C3  UNL     1     -15.072  73.371 101.133  0.00  0.00    +0.000 A 
ATOM     15  C4  UNL     1     -13.768  73.849 101.265  0.00  0.00    +0.000 A 
ATOM     16  C5  UNL     1     -13.508  74.988 102.031  0.00  0.00    +0.000 A 
ATOM     17  C6  UNL     1     -14.552  75.677 102.683  0.00  0.00    +0.000 A 
BRANCH  14  18
ATOM     18  O5  UNL     1     -15.315  72.234 100.367  0.00  0.00    +0.000 OA
ATOM     19  H10 UNL     1     -15.485  71.332 100.798  0.00  0.00    +0.000 HD
ENDBRANCH  14  18
ENDBRANCH   1  17
BRANCH   8  20
ATOM     20  O3  UNL     1      -9.486  79.031 106.455  0.00  0.00    +0.000 OA
ATOM     21  H8  UNL     1      -9.250  79.323 107.396  0.00  0.00    +0.000 HD
ENDBRANCH   8  20
BRANCH   6  22
ATOM     22  O4  UNL     1     -13.693  81.317 106.192  0.00  0.00    +0.000 OA
ATOM     23  H9  UNL     1     -13.726  82.194 105.700  0.00  0.00    +0.000 HD
ENDBRANCH   6  22
TORSDOF 4
ENDMDL
MODEL 5
REMARK VINA RESULT:      -6.7      2.163      7.022
REMARK  Name = .\Apigenin.pdb
REMARK  4 active torsions:
REMARK  status: ('A' for Active; 'I' for Inactive)
REMARK    1  A    between atoms: C3_3  and  O5_20
REMARK    2  A    between atoms: C6_6  and  C7_7
REMARK    3  A    between atoms: C11_12  and  O4_19
REMARK    4  A    between atoms: C13_14  and  O3_18
REMARK                            x       y       z     vdW  Elec       q    Type
REMARK                         _______ _______ _______ _____ _____    ______ ____
ROOT
ATOM      1  C7  UNL     1     -14.123  77.948 105.066  0.00  0.00    +0.000 A 
ATOM      2  C8  UNL     1     -15.022  78.294 104.045  0.00  0.00    +0.000 A 
ATOM      3  C9  UNL     1     -15.822  77.311 103.461  0.00  0.00    +0.000 A 
ATOM      4  O1  UNL     1     -16.613  77.663 102.549  0.00  0.00    +0.000 OA
ATOM      5  C10 UNL     1     -15.725  75.967 103.897  0.00  0.00    +0.000 A 
ATOM      6  C11 UNL     1     -16.489  74.874 103.377  0.00  0.00    +0.000 A 
ATOM      7  C12 UNL     1     -16.296  73.589 103.899  0.00  0.00    +0.000 A 
ATOM      8  C13 UNL     1     -15.372  73.353 104.919  0.00  0.00    +0.000 A 
ATOM      9  C14 UNL     1     -14.624  74.409 105.431  0.00  0.00    +0.000 A 
ATOM     10  C15 UNL     1     -14.791  75.703 104.934  0.00  0.00    +0.000 A 
ATOM     11  O2  UNL     1     -14.055  76.678 105.455  0.00  0.00    +0.000 OA
ENDROOT
BRANCH   1  17
ATOM     12  C1  UNL     1     -13.726  79.974 106.573  0.00  0.00    +0.000 A 
ATOM     13  C2  UNL     1     -12.851  80.878 107.184  0.00  0.00    +0.000 A 
ATOM     14  C3  UNL     1     -11.471  80.774 106.981  0.00  0.00    +0.000 A 
ATOM     15  C4  UNL     1     -10.969  79.761 106.164  0.00  0.00    +0.000 A 
ATOM     16  C5  UNL     1     -11.837  78.854 105.551  0.00  0.00    +0.000 A 
ATOM     17  C6  UNL     1     -13.232  78.942 105.744  0.00  0.00    +0.000 A 
BRANCH  14  18
ATOM     18  O5  UNL     1     -10.593  81.671 107.585  0.00  0.00    +0.000 OA
ATOM     19  H10 UNL     1     -10.923  82.531 108.008  0.00  0.00    +0.000 HD
ENDBRANCH  14  18
ENDBRANCH   1  17
BRANCH   8  20
ATOM     20  O3  UNL     1     -15.190  72.070 105.430  0.00  0.00    +0.000 OA
ATOM     21  H8  UNL     1     -14.290  71.606 105.390  0.00  0.00    +0.000 HD
ENDBRANCH   8  20
BRANCH   6  22
ATOM     22  O4  UNL     1     -17.443  74.984 102.359  0.00  0.00    +0.000 OA
ATOM     23  H9  UNL     1     -17.535  74.380 101.559  0.00  0.00    +0.000 HD
ENDBRANCH   6  22
TORSDOF 4
ENDMDL
MODEL 6
REMARK VINA RESULT:      -6.7      2.203      2.367
REMARK  Name = .\Apigenin.pdb
REMARK  4 active torsions:
REMARK  status: ('A' for Active; 'I' for Inactive)
REMARK    1  A    between atoms: C3_3  and  O5_20
REMARK    2  A    between atoms: C6_6  and  C7_7
REMARK    3  A    between atoms: C11_12  and  O4_19
REMARK    4  A    between atoms: C13_14  and  O3_18
REMARK                            x       y       z     vdW  Elec       q    Type
REMARK                         _______ _______ _______ _____ _____    ______ ____
ROOT
ATOM      1  C7  UNL     1     -14.170  77.574 103.848  0.00  0.00    +0.000 A 
ATOM      2  C8  UNL     1     -12.884  77.016 103.781  0.00  0.00    +0.000 A 
ATOM      3  C9  UNL     1     -11.840  77.583 104.515  0.00  0.00    +0.000 A 
ATOM      4  O1  UNL     1     -10.704  77.053 104.427  0.00  0.00    +0.000 OA
ATOM      5  C10 UNL     1     -12.080  78.720 105.324  0.00  0.00    +0.000 A 
ATOM      6  C11 UNL     1     -11.096  79.389 106.120  0.00  0.00    +0.000 A 
ATOM      7  C12 UNL     1     -11.467  80.507 106.877  0.00  0.00    +0.000 A 
ATOM      8  C13 UNL     1     -12.780  80.982 106.873  0.00  0.00    +0.000 A 
ATOM      9  C14 UNL     1     -13.745  80.338 106.103  0.00  0.00    +0.000 A 
ATOM     10  C15 UNL     1     -13.409  79.221 105.335  0.00  0.00    +0.000 A 
ATOM     11  O2  UNL     1     -14.365  78.641 104.616  0.00  0.00    +0.000 OA
ENDROOT
BRANCH   1  17
ATOM     12  C1  UNL     1     -16.161  75.991 103.597  0.00  0.00    +0.000 A 
ATOM     13  C2  UNL     1     -17.244  75.512 102.852  0.00  0.00    +0.000 A 
ATOM     14  C3  UNL     1     -17.530  76.052 101.594  0.00  0.00    +0.000 A 
ATOM     15  C4  UNL     1     -16.728  77.073 101.083  0.00  0.00    +0.000 A 
ATOM     16  C5  UNL     1     -15.645  77.556 101.822  0.00  0.00    +0.000 A 
ATOM     17  C6  UNL     1     -15.340  77.025 103.093  0.00  0.00    +0.000 A 
BRANCH  14  18
ATOM     18  O5  UNL     1     -18.605  75.581 100.845  0.00  0.00    +0.000 OA
ATOM     19  H10 UNL     1     -18.473  75.177  99.925  0.00  0.00    +0.000 HD
ENDBRANCH  14  18
ENDBRANCH   1  17
BRANCH   8  20
ATOM     20  O3  UNL     1     -13.136  82.095 107.631  0.00  0.00    +0.000 OA
ATOM     21  H8  UNL     1     -13.987  82.612 107.448  0.00  0.00    +0.000 HD
ENDBRANCH   8  20
BRANCH   6  22
ATOM     22  O4  UNL     1      -9.752  79.009 106.207  0.00  0.00    +0.000 OA
ATOM     23  H9  UNL     1      -9.204  78.941 107.048  0.00  0.00    +0.000 HD
ENDBRANCH   6  22
TORSDOF 4
ENDMDL
MODEL 7
REMARK VINA RESULT:      -6.7      1.956      7.306
REMARK  Name = .\Apigenin.pdb
REMARK  4 active torsions:
REMARK  status: ('A' for Active; 'I' for Inactive)
REMARK    1  A    between atoms: C3_3  and  O5_20
REMARK    2  A    between atoms: C6_6  and  C7_7
REMARK    3  A    between atoms: C11_12  and  O4_19
REMARK    4  A    between atoms: C13_14  and  O3_18
REMARK                            x       y       z     vdW  Elec       q    Type
REMARK                         _______ _______ _______ _____ _____    ______ ____
ROOT
ATOM      1  C7  UNL     1     -13.985  77.838 104.187  0.00  0.00    +0.000 A 
ATOM      2  C8  UNL     1     -15.354  78.105 104.031  0.00  0.00    +0.000 A 
ATOM      3  C9  UNL     1     -16.124  77.316 103.174  0.00  0.00    +0.000 A 
ATOM      4  O1  UNL     1     -17.346  77.589 103.062  0.00  0.00    +0.000 OA
ATOM      5  C10 UNL     1     -15.522  76.250 102.463  0.00  0.00    +0.000 A 
ATOM      6  C11 UNL     1     -16.203  75.373 101.558  0.00  0.00    +0.000 A 
ATOM      7  C12 UNL     1     -15.487  74.354 100.918  0.00  0.00    +0.000 A 
ATOM      8  C13 UNL     1     -14.121  74.175 101.145  0.00  0.00    +0.000 A 
ATOM      9  C14 UNL     1     -13.450  75.021 102.023  0.00  0.00    +0.000 A 
ATOM     10  C15 UNL     1     -14.133  76.048 102.678  0.00  0.00    +0.000 A 
ATOM     11  O2  UNL     1     -13.449  76.830 103.507  0.00  0.00    +0.000 OA
ENDROOT
BRANCH   1  17
ATOM     12  C1  UNL     1     -11.716  78.361 105.241  0.00  0.00    +0.000 A 
ATOM     13  C2  UNL     1     -10.925  79.137 106.095  0.00  0.00    +0.000 A 
ATOM     14  C3  UNL     1     -11.488  80.199 106.809  0.00  0.00    +0.000 A 
ATOM     15  C4  UNL     1     -12.847  80.482 106.667  0.00  0.00    +0.000 A 
ATOM     16  C5  UNL     1     -13.643  79.711 105.816  0.00  0.00    +0.000 A 
ATOM     17  C6  UNL     1     -13.094  78.636 105.086  0.00  0.00    +0.000 A 
BRANCH  14  18
ATOM     18  O5  UNL     1     -10.708  80.976 107.662  0.00  0.00    +0.000 OA
ATOM     19  H10 UNL     1     -11.115  81.476 108.444  0.00  0.00    +0.000 HD
ENDBRANCH  14  18
ENDBRANCH   1  17
BRANCH   8  20
ATOM     20  O3  UNL     1     -13.421  73.157 100.502  0.00  0.00    +0.000 OA
ATOM     21  H8  UNL     1     -13.007  73.293  99.587  0.00  0.00    +0.000 HD
ENDBRANCH   8  20
BRANCH   6  22
ATOM     22  O4  UNL     1     -17.565  75.452 101.249  0.00  0.00    +0.000 OA
ATOM     23  H9  UNL     1     -18.308  74.933 101.687  0.00  0.00    +0.000 HD
ENDBRANCH   6  22
TORSDOF 4
ENDMDL
MODEL 8
REMARK VINA RESULT:      -6.7      2.221      6.837
REMARK  Name = .\Apigenin.pdb
REMARK  4 active torsions:
REMARK  status: ('A' for Active; 'I' for Inactive)
REMARK    1  A    between atoms: C3_3  and  O5_20
REMARK    2  A    between atoms: C6_6  and  C7_7
REMARK    3  A    between atoms: C11_12  and  O4_19
REMARK    4  A    between atoms: C13_14  and  O3_18
REMARK                            x       y       z     vdW  Elec       q    Type
REMARK                         _______ _______ _______ _____ _____    ______ ____
ROOT
ATOM      1  C7  UNL     1     -14.019  77.252 104.944  0.00  0.00    +0.000 A 
ATOM      2  C8  UNL     1     -13.894  75.896 105.281  0.00  0.00    +0.000 A 
ATOM      3  C9  UNL     1     -14.625  74.934 104.581  0.00  0.00    +0.000 A 
ATOM      4  O1  UNL     1     -14.484  73.731 104.916  0.00  0.00    +0.000 OA
ATOM      5  C10 UNL     1     -15.492  75.329 103.534  0.00  0.00    +0.000 A 
ATOM      6  C11 UNL     1     -16.292  74.440 102.746  0.00  0.00    +0.000 A 
ATOM      7  C12 UNL     1     -17.110  74.962 101.736  0.00  0.00    +0.000 A 
ATOM      8  C13 UNL     1     -17.160  76.334 101.482  0.00  0.00    +0.000 A 
ATOM      9  C14 UNL     1     -16.387  77.206 102.242  0.00  0.00    +0.000 A 
ATOM     10  C15 UNL     1     -15.560  76.720 103.257  0.00  0.00    +0.000 A 
ATOM     11  O2  UNL     1     -14.841  77.592 103.955  0.00  0.00    +0.000 OA
ENDROOT
BRANCH   1  17
ATOM     12  C1  UNL     1     -13.893  79.263 106.516  0.00  0.00    +0.000 A 
ATOM     13  C2  UNL     1     -13.148  80.265 107.147  0.00  0.00    +0.000 A 
ATOM     14  C3  UNL     1     -11.771  80.369 106.922  0.00  0.00    +0.000 A 
ATOM     15  C4  UNL     1     -11.143  79.468 106.063  0.00  0.00    +0.000 A 
ATOM     16  C5  UNL     1     -11.881  78.465 105.430  0.00  0.00    +0.000 A 
ATOM     17  C6  UNL     1     -13.270  78.342 105.644  0.00  0.00    +0.000 A 
BRANCH  14  18
ATOM     18  O5  UNL     1     -11.022  81.364 107.545  0.00  0.00    +0.000 OA
ATOM     19  H10 UNL     1     -10.039  81.497 107.335  0.00  0.00    +0.000 HD
ENDBRANCH  14  18
ENDBRANCH   1  17
BRANCH   8  20
ATOM     20  O3  UNL     1     -17.978  76.840 100.474  0.00  0.00    +0.000 OA
ATOM     21  H8  UNL     1     -17.968  77.822 100.225  0.00  0.00    +0.000 HD
ENDBRANCH   8  20
BRANCH   6  22
ATOM     22  O4  UNL     1     -16.327  73.050 102.905  0.00  0.00    +0.000 OA
ATOM     23  H9  UNL     1     -15.662  72.390 102.539  0.00  0.00    +0.000 HD
ENDBRANCH   6  22
TORSDOF 4
ENDMDL
MODEL 9
REMARK VINA RESULT:      -6.6      2.049      2.150
REMARK  Name = .\Apigenin.pdb
REMARK  4 active torsions:
REMARK  status: ('A' for Active; 'I' for Inactive)
REMARK    1  A    between atoms: C3_3  and  O5_20
REMARK    2  A    between atoms: C6_6  and  C7_7
REMARK    3  A    between atoms: C11_12  and  O4_19
REMARK    4  A    between atoms: C13_14  and  O3_18
REMARK                            x       y       z     vdW  Elec       q    Type
REMARK                         _______ _______ _______ _____ _____    ______ ____
ROOT
ATOM      1  C7  UNL     1     -13.430  77.056 103.158  0.00  0.00    +0.000 A 
ATOM      2  C8  UNL     1     -12.250  76.995 103.916  0.00  0.00    +0.000 A 
ATOM      3  C9  UNL     1     -11.733  78.156 104.494  0.00  0.00    +0.000 A 
ATOM      4  O1  UNL     1     -10.674  78.057 105.165  0.00  0.00    +0.000 OA
ATOM      5  C10 UNL     1     -12.397  79.393 104.313  0.00  0.00    +0.000 A 
ATOM      6  C11 UNL     1     -11.967  80.647 104.853  0.00  0.00    +0.000 A 
ATOM      7  C12 UNL     1     -12.718  81.801 104.598  0.00  0.00    +0.000 A 
ATOM      8  C13 UNL     1     -13.882  81.751 103.828  0.00  0.00    +0.000 A 
ATOM      9  C14 UNL     1     -14.309  80.537 103.298  0.00  0.00    +0.000 A 
ATOM     10  C15 UNL     1     -13.583  79.367 103.532  0.00  0.00    +0.000 A 
ATOM     11  O2  UNL     1     -14.031  78.232 103.006  0.00  0.00    +0.000 OA
ENDROOT
BRANCH   1  17
ATOM     12  C1  UNL     1     -15.441  75.621 102.505  0.00  0.00    +0.000 A 
ATOM     13  C2  UNL     1     -15.970  74.486 101.883  0.00  0.00    +0.000 A 
ATOM     14  C3  UNL     1     -15.125  73.566 101.254  0.00  0.00    +0.000 A 
ATOM     15  C4  UNL     1     -13.747  73.787 101.249  0.00  0.00    +0.000 A 
ATOM     16  C5  UNL     1     -13.212  74.919 101.869  0.00  0.00    +0.000 A 
ATOM     17  C6  UNL     1     -14.048  75.859 102.508  0.00  0.00    +0.000 A 
BRANCH  14  18
ATOM     18  O5  UNL     1     -15.643  72.432 100.633  0.00  0.00    +0.000 OA
ATOM     19  H10 UNL     1     -16.464  71.959 100.994  0.00  0.00    +0.000 HD
ENDBRANCH  14  18
ENDBRANCH   1  17
BRANCH   8  20
ATOM     20  O3  UNL     1     -14.621  82.906 103.582  0.00  0.00    +0.000 OA
ATOM     21  H8  UNL     1     -14.175  83.774 103.308  0.00  0.00    +0.000 HD
ENDBRANCH   8  20
BRANCH   6  22
ATOM     22  O4  UNL     1     -10.822  80.824 105.637  0.00  0.00    +0.000 OA
ATOM     23  H9  UNL     1      -9.986  81.317 105.372  0.00  0.00    +0.000 HD
ENDBRANCH   6  22
TORSDOF 4
ENDMDL
