MODEL 1
REMARK VINA RESULT:      -6.5      0.000      0.000
REMARK  Name = .\Apigenin.pdb
REMARK  4 active torsions:
REMARK  status: ('A' for Active; 'I' for Inactive)
REMARK    1  A    between atoms: C3_3  and  O5_20
REMARK    2  A    between atoms: C6_6  and  C7_7
REMARK    3  A    between atoms: C11_12  and  O4_19
REMARK    4  A    between atoms: C13_14  and  O3_18
REMARK                            x       y       z     vdW  Elec       q    Type
REMARK                         _______ _______ _______ _____ _____    ______ ____
ROOT
ATOM      1  C7  UNL     1     -20.574  83.136 127.145  0.00  0.00    +0.000 A 
ATOM      2  C8  UNL     1     -20.673  82.100 128.086  0.00  0.00    +0.000 A 
ATOM      3  C9  UNL     1     -21.211  80.867 127.711  0.00  0.00    +0.000 A 
ATOM      4  O1  UNL     1     -21.282  79.966 128.584  0.00  0.00    +0.000 OA
ATOM      5  C10 UNL     1     -21.656  80.665 126.382  0.00  0.00    +0.000 A 
ATOM      6  C11 UNL     1     -22.224  79.451 125.878  0.00  0.00    +0.000 A 
ATOM      7  C12 UNL     1     -22.625  79.383 124.538  0.00  0.00    +0.000 A 
ATOM      8  C13 UNL     1     -22.481  80.478 123.682  0.00  0.00    +0.000 A 
ATOM      9  C14 UNL     1     -21.931  81.662 124.163  0.00  0.00    +0.000 A 
ATOM     10  C15 UNL     1     -21.521  81.765 125.493  0.00  0.00    +0.000 A 
ATOM     11  O2  UNL     1     -21.001  82.916 125.905  0.00  0.00    +0.000 OA
ENDROOT
BRANCH   1  17
ATOM     12  C1  UNL     1     -19.298  85.263 126.528  0.00  0.00    +0.000 A 
ATOM     13  C2  UNL     1     -18.790  86.517 126.880  0.00  0.00    +0.000 A 
ATOM     14  C3  UNL     1     -18.980  87.020 128.171  0.00  0.00    +0.000 A 
ATOM     15  C4  UNL     1     -19.680  86.262 129.110  0.00  0.00    +0.000 A 
ATOM     16  C5  UNL     1     -20.190  85.008 128.765  0.00  0.00    +0.000 A 
ATOM     17  C6  UNL     1     -20.010  84.484 127.468  0.00  0.00    +0.000 A 
BRANCH  14  18
ATOM     18  O5  UNL     1     -18.476  88.268 128.530  0.00  0.00    +0.000 OA
ATOM     19  H10 UNL     1     -18.082  88.436 129.449  0.00  0.00    +0.000 HD
ENDBRANCH  14  18
ENDBRANCH   1  17
BRANCH   8  20
ATOM     20  O3  UNL     1     -22.885  80.397 122.352  0.00  0.00    +0.000 OA
ATOM     21  H8  UNL     1     -23.841  80.177 122.099  0.00  0.00    +0.000 HD
ENDBRANCH   8  20
BRANCH   6  22
ATOM     22  O4  UNL     1     -22.418  78.291 126.634  0.00  0.00    +0.000 OA
ATOM     23  H9  UNL     1     -23.065  78.176 127.397  0.00  0.00    +0.000 HD
ENDBRANCH   6  22
TORSDOF 4
ENDMDL
MODEL 2
REMARK VINA RESULT:      -6.1      1.711      3.529
REMARK  Name = .\Apigenin.pdb
REMARK  4 active torsions:
REMARK  status: ('A' for Active; 'I' for Inactive)
REMARK    1  A    between atoms: C3_3  and  O5_20
REMARK    2  A    between atoms: C6_6  and  C7_7
REMARK    3  A    between atoms: C11_12  and  O4_19
REMARK    4  A    between atoms: C13_14  and  O3_18
REMARK                            x       y       z     vdW  Elec       q    Type
REMARK                         _______ _______ _______ _____ _____    ______ ____
ROOT
ATOM      1  C7  UNL     1     -20.502  83.018 127.741  0.00  0.00    +0.000 A 
ATOM      2  C8  UNL     1     -20.932  82.379 126.567  0.00  0.00    +0.000 A 
ATOM      3  C9  UNL     1     -21.400  81.065 126.621  0.00  0.00    +0.000 A 
ATOM      4  O1  UNL     1     -21.776  80.530 125.547  0.00  0.00    +0.000 OA
ATOM      5  C10 UNL     1     -21.439  80.378 127.859  0.00  0.00    +0.000 A 
ATOM      6  C11 UNL     1     -21.896  79.034 128.042  0.00  0.00    +0.000 A 
ATOM      7  C12 UNL     1     -21.883  78.471 129.324  0.00  0.00    +0.000 A 
ATOM      8  C13 UNL     1     -21.433  79.197 130.429  0.00  0.00    +0.000 A 
ATOM      9  C14 UNL     1     -20.987  80.504 130.261  0.00  0.00    +0.000 A 
ATOM     10  C15 UNL     1     -20.986  81.096 128.997  0.00  0.00    +0.000 A 
ATOM     11  O2  UNL     1     -20.551  82.347 128.887  0.00  0.00    +0.000 OA
ENDROOT
BRANCH   1  17
ATOM     12  C1  UNL     1     -19.414  85.050 126.638  0.00  0.00    +0.000 A 
ATOM     13  C2  UNL     1     -18.948  86.367 126.714  0.00  0.00    +0.000 A 
ATOM     14  C3  UNL     1     -19.044  87.083 127.911  0.00  0.00    +0.000 A 
ATOM     15  C4  UNL     1     -19.608  86.476 129.034  0.00  0.00    +0.000 A 
ATOM     16  C5  UNL     1     -20.075  85.161 128.965  0.00  0.00    +0.000 A 
ATOM     17  C6  UNL     1     -19.988  84.423 127.767  0.00  0.00    +0.000 A 
BRANCH  14  18
ATOM     18  O5  UNL     1     -18.581  88.394 127.996  0.00  0.00    +0.000 OA
ATOM     19  H10 UNL     1     -19.187  89.151 128.294  0.00  0.00    +0.000 HD
ENDBRANCH  14  18
ENDBRANCH   1  17
BRANCH   8  20
ATOM     20  O3  UNL     1     -21.425  78.625 131.699  0.00  0.00    +0.000 OA
ATOM     21  H8  UNL     1     -21.023  77.710 131.867  0.00  0.00    +0.000 HD
ENDBRANCH   8  20
BRANCH   6  22
ATOM     22  O4  UNL     1     -22.369  78.208 127.016  0.00  0.00    +0.000 OA
ATOM     23  H9  UNL     1     -23.198  78.356 126.464  0.00  0.00    +0.000 HD
ENDBRANCH   6  22
TORSDOF 4
ENDMDL
MODEL 3
REMARK VINA RESULT:      -5.9      1.842      2.600
REMARK  Name = .\Apigenin.pdb
REMARK  4 active torsions:
REMARK  status: ('A' for Active; 'I' for Inactive)
REMARK    1  A    between atoms: C3_3  and  O5_20
REMARK    2  A    between atoms: C6_6  and  C7_7
REMARK    3  A    between atoms: C11_12  and  O4_19
REMARK    4  A    between atoms: C13_14  and  O3_18
REMARK                            x       y       z     vdW  Elec       q    Type
REMARK                         _______ _______ _______ _____ _____    ______ ____
ROOT
ATOM      1  C7  UNL     1     -20.326  83.363 128.790  0.00  0.00    +0.000 A 
ATOM      2  C8  UNL     1     -20.085  82.807 130.056  0.00  0.00    +0.000 A 
ATOM      3  C9  UNL     1     -20.432  81.479 130.310  0.00  0.00    +0.000 A 
ATOM      4  O1  UNL     1     -20.200  81.019 131.457  0.00  0.00    +0.000 OA
ATOM      5  C10 UNL     1     -21.026  80.695 129.290  0.00  0.00    +0.000 A 
ATOM      6  C11 UNL     1     -21.424  79.327 129.428  0.00  0.00    +0.000 A 
ATOM      7  C12 UNL     1     -22.002  78.665 128.338  0.00  0.00    +0.000 A 
ATOM      8  C13 UNL     1     -22.197  79.315 127.117  0.00  0.00    +0.000 A 
ATOM      9  C14 UNL     1     -21.813  80.645 126.973  0.00  0.00    +0.000 A 
ATOM     10  C15 UNL     1     -21.235  81.335 128.040  0.00  0.00    +0.000 A 
ATOM     11  O2  UNL     1     -20.884  82.603 127.853  0.00  0.00    +0.000 OA
ENDROOT
BRANCH   1  17
ATOM     12  C1  UNL     1     -19.565  85.167 127.147  0.00  0.00    +0.000 A 
ATOM     13  C2  UNL     1     -19.255  86.502 126.869  0.00  0.00    +0.000 A 
ATOM     14  C3  UNL     1     -19.355  87.474 127.870  0.00  0.00    +0.000 A 
ATOM     15  C4  UNL     1     -19.766  87.104 129.151  0.00  0.00    +0.000 A 
ATOM     16  C5  UNL     1     -20.077  85.772 129.435  0.00  0.00    +0.000 A 
ATOM     17  C6  UNL     1     -19.983  84.777 128.439  0.00  0.00    +0.000 A 
BRANCH  14  18
ATOM     18  O5  UNL     1     -19.049  88.806 127.603  0.00  0.00    +0.000 OA
ATOM     19  H10 UNL     1     -19.775  89.497 127.453  0.00  0.00    +0.000 HD
ENDBRANCH  14  18
ENDBRANCH   1  17
BRANCH   8  20
ATOM     20  O3  UNL     1     -22.773  78.645 126.040  0.00  0.00    +0.000 OA
ATOM     21  H8  UNL     1     -22.793  79.049 125.111  0.00  0.00    +0.000 HD
ENDBRANCH   8  20
BRANCH   6  22
ATOM     22  O4  UNL     1     -21.281  78.571 130.596  0.00  0.00    +0.000 OA
ATOM     23  H9  UNL     1     -21.878  78.603 131.406  0.00  0.00    +0.000 HD
ENDBRANCH   6  22
TORSDOF 4
ENDMDL
MODEL 4
REMARK VINA RESULT:      -5.7      2.748      6.855
REMARK  Name = .\Apigenin.pdb
REMARK  4 active torsions:
REMARK  status: ('A' for Active; 'I' for Inactive)
REMARK    1  A    between atoms: C3_3  and  O5_20
REMARK    2  A    between atoms: C6_6  and  C7_7
REMARK    3  A    between atoms: C11_12  and  O4_19
REMARK    4  A    between atoms: C13_14  and  O3_18
REMARK                            x       y       z     vdW  Elec       q    Type
REMARK                         _______ _______ _______ _____ _____    ______ ____
ROOT
ATOM      1  C7  UNL     1     -20.814  82.360 128.425  0.00  0.00    +0.000 A 
ATOM      2  C8  UNL     1     -20.214  82.087 127.186  0.00  0.00    +0.000 A 
ATOM      3  C9  UNL     1     -19.497  83.086 126.525  0.00  0.00    +0.000 A 
ATOM      4  O1  UNL     1     -18.976  82.801 125.418  0.00  0.00    +0.000 OA
ATOM      5  C10 UNL     1     -19.379  84.373 127.104  0.00  0.00    +0.000 A 
ATOM      6  C11 UNL     1     -18.673  85.476 126.526  0.00  0.00    +0.000 A 
ATOM      7  C12 UNL     1     -18.632  86.700 127.205  0.00  0.00    +0.000 A 
ATOM      8  C13 UNL     1     -19.266  86.865 128.438  0.00  0.00    +0.000 A 
ATOM      9  C14 UNL     1     -19.955  85.799 129.009  0.00  0.00    +0.000 A 
ATOM     10  C15 UNL     1     -20.016  84.565 128.359  0.00  0.00    +0.000 A 
ATOM     11  O2  UNL     1     -20.685  83.577 128.944  0.00  0.00    +0.000 OA
ENDROOT
BRANCH   1  17
ATOM     12  C1  UNL     1     -22.589  81.694 130.139  0.00  0.00    +0.000 A 
ATOM     13  C2  UNL     1     -23.293  80.707 130.835  0.00  0.00    +0.000 A 
ATOM     14  C3  UNL     1     -23.024  79.353 130.607  0.00  0.00    +0.000 A 
ATOM     15  C4  UNL     1     -22.047  78.992 129.679  0.00  0.00    +0.000 A 
ATOM     16  C5  UNL     1     -21.340  79.974 128.981  0.00  0.00    +0.000 A 
ATOM     17  C6  UNL     1     -21.597  81.344 129.196  0.00  0.00    +0.000 A 
BRANCH  14  18
ATOM     18  O5  UNL     1     -23.720  78.363 131.296  0.00  0.00    +0.000 OA
ATOM     19  H10 UNL     1     -24.219  77.629 130.806  0.00  0.00    +0.000 HD
ENDBRANCH  14  18
ENDBRANCH   1  17
BRANCH   8  20
ATOM     20  O3  UNL     1     -19.218  88.088 129.104  0.00  0.00    +0.000 OA
ATOM     21  H8  UNL     1     -19.773  88.264 129.933  0.00  0.00    +0.000 HD
ENDBRANCH   8  20
BRANCH   6  22
ATOM     22  O4  UNL     1     -18.000  85.435 125.300  0.00  0.00    +0.000 OA
ATOM     23  H9  UNL     1     -18.132  84.756 124.569  0.00  0.00    +0.000 HD
ENDBRANCH   6  22
TORSDOF 4
ENDMDL
MODEL 5
REMARK VINA RESULT:      -5.6      1.160      1.734
REMARK  Name = .\Apigenin.pdb
REMARK  4 active torsions:
REMARK  status: ('A' for Active; 'I' for Inactive)
REMARK    1  A    between atoms: C3_3  and  O5_20
REMARK    2  A    between atoms: C6_6  and  C7_7
REMARK    3  A    between atoms: C11_12  and  O4_19
REMARK    4  A    between atoms: C13_14  and  O3_18
REMARK                            x       y       z     vdW  Elec       q    Type
REMARK                         _______ _______ _______ _____ _____    ______ ____
ROOT
ATOM      1  C7  UNL     1     -20.666  82.933 128.089  0.00  0.00    +0.000 A 
ATOM      2  C8  UNL     1     -20.609  82.080 129.202  0.00  0.00    +0.000 A 
ATOM      3  C9  UNL     1     -21.140  80.792 129.120  0.00  0.00    +0.000 A 
ATOM      4  O1  UNL     1     -21.068  80.061 130.140  0.00  0.00    +0.000 OA
ATOM      5  C10 UNL     1     -21.737  80.349 127.915  0.00  0.00    +0.000 A 
ATOM      6  C11 UNL     1     -22.314  79.055 127.708  0.00  0.00    +0.000 A 
ATOM      7  C12 UNL     1     -22.874  78.742 126.463  0.00  0.00    +0.000 A 
ATOM      8  C13 UNL     1     -22.878  79.668 125.417  0.00  0.00    +0.000 A 
ATOM      9  C14 UNL     1     -22.319  80.928 125.608  0.00  0.00    +0.000 A 
ATOM     10  C15 UNL     1     -21.754  81.273 126.837  0.00  0.00    +0.000 A 
ATOM     11  O2  UNL     1     -21.232  82.488 126.971  0.00  0.00    +0.000 OA
ENDROOT
BRANCH   1  17
ATOM     12  C1  UNL     1     -20.121  85.145 129.247  0.00  0.00    +0.000 A 
ATOM     13  C2  UNL     1     -19.598  86.441 129.203  0.00  0.00    +0.000 A 
ATOM     14  C3  UNL     1     -19.063  86.947 128.013  0.00  0.00    +0.000 A 
ATOM     15  C4  UNL     1     -19.054  86.150 126.868  0.00  0.00    +0.000 A 
ATOM     16  C5  UNL     1     -19.576  84.855 126.906  0.00  0.00    +0.000 A 
ATOM     17  C6  UNL     1     -20.119  84.326 128.096  0.00  0.00    +0.000 A 
BRANCH  14  18
ATOM     18  O5  UNL     1     -18.540  88.237 127.959  0.00  0.00    +0.000 OA
ATOM     19  H10 UNL     1     -19.124  89.036 127.742  0.00  0.00    +0.000 HD
ENDBRANCH  14  18
ENDBRANCH   1  17
BRANCH   8  20
ATOM     20  O3  UNL     1     -23.438  79.344 124.184  0.00  0.00    +0.000 OA
ATOM     21  H8  UNL     1     -23.635  80.052 123.487  0.00  0.00    +0.000 HD
ENDBRANCH   8  20
BRANCH   6  22
ATOM     22  O4  UNL     1     -22.370  78.045 128.674  0.00  0.00    +0.000 OA
ATOM     23  H9  UNL     1     -21.591  77.659 129.181  0.00  0.00    +0.000 HD
ENDBRANCH   6  22
TORSDOF 4
ENDMDL
MODEL 6
REMARK VINA RESULT:      -5.6      1.589      7.182
REMARK  Name = .\Apigenin.pdb
REMARK  4 active torsions:
REMARK  status: ('A' for Active; 'I' for Inactive)
REMARK    1  A    between atoms: C3_3  and  O5_20
REMARK    2  A    between atoms: C6_6  and  C7_7
REMARK    3  A    between atoms: C11_12  and  O4_19
REMARK    4  A    between atoms: C13_14  and  O3_18
REMARK                            x       y       z     vdW  Elec       q    Type
REMARK                         _______ _______ _______ _____ _____    ______ ____
ROOT
ATOM      1  C7  UNL     1     -20.622  82.584 126.200  0.00  0.00    +0.000 A 
ATOM      2  C8  UNL     1     -19.704  83.212 125.344  0.00  0.00    +0.000 A 
ATOM      3  C9  UNL     1     -19.041  84.367 125.762  0.00  0.00    +0.000 A 
ATOM      4  O1  UNL     1     -18.227  84.898 124.965  0.00  0.00    +0.000 OA
ATOM      5  C10 UNL     1     -19.297  84.904 127.046  0.00  0.00    +0.000 A 
ATOM      6  C11 UNL     1     -18.683  86.079 127.586  0.00  0.00    +0.000 A 
ATOM      7  C12 UNL     1     -19.026  86.505 128.876  0.00  0.00    +0.000 A 
ATOM      8  C13 UNL     1     -19.955  85.804 129.647  0.00  0.00    +0.000 A 
ATOM      9  C14 UNL     1     -20.558  84.660 129.131  0.00  0.00    +0.000 A 
ATOM     10  C15 UNL     1     -20.240  84.208 127.849  0.00  0.00    +0.000 A 
ATOM     11  O2  UNL     1     -20.841  83.112 127.400  0.00  0.00    +0.000 OA
ENDROOT
BRANCH   1  17
ATOM     12  C1  UNL     1     -21.908  80.454 126.786  0.00  0.00    +0.000 A 
ATOM     13  C2  UNL     1     -22.601  79.307 126.386  0.00  0.00    +0.000 A 
ATOM     14  C3  UNL     1     -22.773  79.022 125.028  0.00  0.00    +0.000 A 
ATOM     15  C4  UNL     1     -22.249  79.891 124.070  0.00  0.00    +0.000 A 
ATOM     16  C5  UNL     1     -21.555  81.038 124.462  0.00  0.00    +0.000 A 
ATOM     17  C6  UNL     1     -21.372  81.343 125.827  0.00  0.00    +0.000 A 
BRANCH  14  18
ATOM     18  O5  UNL     1     -23.461  77.882 124.621  0.00  0.00    +0.000 OA
ATOM     19  H10 UNL     1     -23.451  77.032 125.173  0.00  0.00    +0.000 HD
ENDBRANCH  14  18
ENDBRANCH   1  17
BRANCH   8  20
ATOM     20  O3  UNL     1     -20.288  86.238 130.928  0.00  0.00    +0.000 OA
ATOM     21  H8  UNL     1     -19.657  86.113 131.711  0.00  0.00    +0.000 HD
ENDBRANCH   8  20
BRANCH   6  22
ATOM     22  O4  UNL     1     -17.739  86.864 126.914  0.00  0.00    +0.000 OA
ATOM     23  H9  UNL     1     -17.392  87.762 127.206  0.00  0.00    +0.000 HD
ENDBRANCH   6  22
TORSDOF 4
ENDMDL
MODEL 7
REMARK VINA RESULT:      -5.5      2.552      6.671
REMARK  Name = .\Apigenin.pdb
REMARK  4 active torsions:
REMARK  status: ('A' for Active; 'I' for Inactive)
REMARK    1  A    between atoms: C3_3  and  O5_20
REMARK    2  A    between atoms: C6_6  and  C7_7
REMARK    3  A    between atoms: C11_12  and  O4_19
REMARK    4  A    between atoms: C13_14  and  O3_18
REMARK                            x       y       z     vdW  Elec       q    Type
REMARK                         _______ _______ _______ _____ _____    ______ ____
ROOT
ATOM      1  C7  UNL     1     -21.165  82.495 128.251  0.00  0.00    +0.000 A 
ATOM      2  C8  UNL     1     -21.289  83.402 129.315  0.00  0.00    +0.000 A 
ATOM      3  C9  UNL     1     -20.602  84.616 129.279  0.00  0.00    +0.000 A 
ATOM      4  O1  UNL     1     -20.741  85.399 130.252  0.00  0.00    +0.000 OA
ATOM      5  C10 UNL     1     -19.778  84.930 128.171  0.00  0.00    +0.000 A 
ATOM      6  C11 UNL     1     -19.025  86.138 128.019  0.00  0.00    +0.000 A 
ATOM      7  C12 UNL     1     -18.248  86.325 126.869  0.00  0.00    +0.000 A 
ATOM      8  C13 UNL     1     -18.194  85.355 125.866  0.00  0.00    +0.000 A 
ATOM      9  C14 UNL     1     -18.922  84.177 126.004  0.00  0.00    +0.000 A 
ATOM     10  C15 UNL     1     -19.707  83.958 127.138  0.00  0.00    +0.000 A 
ATOM     11  O2  UNL     1     -20.385  82.818 127.224  0.00  0.00    +0.000 OA
ENDROOT
BRANCH   1  17
ATOM     12  C1  UNL     1     -21.210  79.947 128.448  0.00  0.00    +0.000 A 
ATOM     13  C2  UNL     1     -21.914  78.739 128.402  0.00  0.00    +0.000 A 
ATOM     14  C3  UNL     1     -23.284  78.730 128.121  0.00  0.00    +0.000 A 
ATOM     15  C4  UNL     1     -23.948  79.934 127.886  0.00  0.00    +0.000 A 
ATOM     16  C5  UNL     1     -23.251  81.144 127.931  0.00  0.00    +0.000 A 
ATOM     17  C6  UNL     1     -21.869  81.175 128.214  0.00  0.00    +0.000 A 
BRANCH  14  18
ATOM     18  O5  UNL     1     -23.993  77.532 128.072  0.00  0.00    +0.000 OA
ATOM     19  H10 UNL     1     -23.659  76.700 128.545  0.00  0.00    +0.000 HD
ENDBRANCH  14  18
ENDBRANCH   1  17
BRANCH   8  20
ATOM     20  O3  UNL     1     -17.417  85.554 124.727  0.00  0.00    +0.000 OA
ATOM     21  H8  UNL     1     -16.470  85.200 124.662  0.00  0.00    +0.000 HD
ENDBRANCH   8  20
BRANCH   6  22
ATOM     22  O4  UNL     1     -18.998  87.181 128.951  0.00  0.00    +0.000 OA
ATOM     23  H9  UNL     1     -19.284  88.132 128.792  0.00  0.00    +0.000 HD
ENDBRANCH   6  22
TORSDOF 4
ENDMDL
MODEL 8
REMARK VINA RESULT:      -5.3      1.326      2.965
REMARK  Name = .\Apigenin.pdb
REMARK  4 active torsions:
REMARK  status: ('A' for Active; 'I' for Inactive)
REMARK    1  A    between atoms: C3_3  and  O5_20
REMARK    2  A    between atoms: C6_6  and  C7_7
REMARK    3  A    between atoms: C11_12  and  O4_19
REMARK    4  A    between atoms: C13_14  and  O3_18
REMARK                            x       y       z     vdW  Elec       q    Type
REMARK                         _______ _______ _______ _____ _____    ______ ____
ROOT
ATOM      1  C7  UNL     1     -20.239  83.373 126.924  0.00  0.00    +0.000 A 
ATOM      2  C8  UNL     1     -20.537  82.948 125.620  0.00  0.00    +0.000 A 
ATOM      3  C9  UNL     1     -21.049  81.668 125.405  0.00  0.00    +0.000 A 
ATOM      4  O1  UNL     1     -21.303  81.327 124.222  0.00  0.00    +0.000 OA
ATOM      5  C10 UNL     1     -21.265  80.798 126.502  0.00  0.00    +0.000 A 
ATOM      6  C11 UNL     1     -21.783  79.467 126.409  0.00  0.00    +0.000 A 
ATOM      7  C12 UNL     1     -21.949  78.710 127.576  0.00  0.00    +0.000 A 
ATOM      8  C13 UNL     1     -21.620  79.230 128.830  0.00  0.00    +0.000 A 
ATOM      9  C14 UNL     1     -21.115  80.524 128.930  0.00  0.00    +0.000 A 
ATOM     10  C15 UNL     1     -20.937  81.305 127.787  0.00  0.00    +0.000 A 
ATOM     11  O2  UNL     1     -20.453  82.534 127.934  0.00  0.00    +0.000 OA
ENDROOT
BRANCH   1  17
ATOM     12  C1  UNL     1     -18.795  85.410 126.382  0.00  0.00    +0.000 A 
ATOM     13  C2  UNL     1     -18.308  86.677 126.721  0.00  0.00    +0.000 A 
ATOM     14  C3  UNL     1     -18.702  87.289 127.916  0.00  0.00    +0.000 A 
ATOM     15  C4  UNL     1     -19.584  86.628 128.771  0.00  0.00    +0.000 A 
ATOM     16  C5  UNL     1     -20.074  85.362 128.438  0.00  0.00    +0.000 A 
ATOM     17  C6  UNL     1     -19.689  84.728 127.238  0.00  0.00    +0.000 A 
BRANCH  14  18
ATOM     18  O5  UNL     1     -18.223  88.550 128.261  0.00  0.00    +0.000 OA
ATOM     19  H10 UNL     1     -17.865  88.744 129.190  0.00  0.00    +0.000 HD
ENDBRANCH  14  18
ENDBRANCH   1  17
BRANCH   8  20
ATOM     20  O3  UNL     1     -21.789  78.467 129.982  0.00  0.00    +0.000 OA
ATOM     21  H8  UNL     1     -21.015  77.976 130.413  0.00  0.00    +0.000 HD
ENDBRANCH   8  20
BRANCH   6  22
ATOM     22  O4  UNL     1     -22.149  78.837 125.215  0.00  0.00    +0.000 OA
ATOM     23  H9  UNL     1     -22.485  77.894 125.115  0.00  0.00    +0.000 HD
ENDBRANCH   6  22
TORSDOF 4
ENDMDL
MODEL 9
REMARK VINA RESULT:      -5.1      1.613      6.569
REMARK  Name = .\Apigenin.pdb
REMARK  4 active torsions:
REMARK  status: ('A' for Active; 'I' for Inactive)
REMARK    1  A    between atoms: C3_3  and  O5_20
REMARK    2  A    between atoms: C6_6  and  C7_7
REMARK    3  A    between atoms: C11_12  and  O4_19
REMARK    4  A    between atoms: C13_14  and  O3_18
REMARK                            x       y       z     vdW  Elec       q    Type
REMARK                         _______ _______ _______ _____ _____    ______ ____
ROOT
ATOM      1  C7  UNL     1     -21.244  81.764 127.098  0.00  0.00    +0.000 A 
ATOM      2  C8  UNL     1     -21.135  81.104 128.332  0.00  0.00    +0.000 A 
ATOM      3  C9  UNL     1     -20.634  81.785 129.443  0.00  0.00    +0.000 A 
ATOM      4  O1  UNL     1     -20.552  81.158 130.529  0.00  0.00    +0.000 OA
ATOM      5  C10 UNL     1     -20.234  83.138 129.323  0.00  0.00    +0.000 A 
ATOM      6  C11 UNL     1     -19.706  83.940 130.384  0.00  0.00    +0.000 A 
ATOM      7  C12 UNL     1     -19.348  85.270 130.131  0.00  0.00    +0.000 A 
ATOM      8  C13 UNL     1     -19.498  85.830 128.861  0.00  0.00    +0.000 A 
ATOM      9  C14 UNL     1     -20.010  85.059 127.821  0.00  0.00    +0.000 A 
ATOM     10  C15 UNL     1     -20.376  83.730 128.039  0.00  0.00    +0.000 A 
ATOM     11  O2  UNL     1     -20.861  83.034 127.016  0.00  0.00    +0.000 OA
ENDROOT
BRANCH   1  17
ATOM     12  C1  UNL     1     -21.869  81.771 124.620  0.00  0.00    +0.000 A 
ATOM     13  C2  UNL     1     -22.370  81.111 123.493  0.00  0.00    +0.000 A 
ATOM     14  C3  UNL     1     -22.785  79.778 123.581  0.00  0.00    +0.000 A 
ATOM     15  C4  UNL     1     -22.696  79.108 124.802  0.00  0.00    +0.000 A 
ATOM     16  C5  UNL     1     -22.196  79.761 125.931  0.00  0.00    +0.000 A 
ATOM     17  C6  UNL     1     -21.772  81.105 125.862  0.00  0.00    +0.000 A 
BRANCH  14  18
ATOM     18  O5  UNL     1     -23.286  79.113 122.465  0.00  0.00    +0.000 OA
ATOM     19  H10 UNL     1     -23.773  78.228 122.550  0.00  0.00    +0.000 HD
ENDBRANCH  14  18
ENDBRANCH   1  17
BRANCH   8  20
ATOM     20  O3  UNL     1     -19.138  87.155 128.622  0.00  0.00    +0.000 OA
ATOM     21  H8  UNL     1     -18.204  87.405 128.320  0.00  0.00    +0.000 HD
ENDBRANCH   8  20
BRANCH   6  22
ATOM     22  O4  UNL     1     -19.509  83.493 131.696  0.00  0.00    +0.000 OA
ATOM     23  H9  UNL     1     -18.936  83.932 132.397  0.00  0.00    +0.000 HD
ENDBRANCH   6  22
TORSDOF 4
ENDMDL
