MODEL 1
REMARK VINA RESULT:      -3.9      0.000      0.000
REMARK  Name = .\Apigenin.pdb
REMARK  4 active torsions:
REMARK  status: ('A' for Active; 'I' for Inactive)
REMARK    1  A    between atoms: C3_3  and  O5_20
REMARK    2  A    between atoms: C6_6  and  C7_7
REMARK    3  A    between atoms: C11_12  and  O4_19
REMARK    4  A    between atoms: C13_14  and  O3_18
REMARK                            x       y       z     vdW  Elec       q    Type
REMARK                         _______ _______ _______ _____ _____    ______ ____
ROOT
ATOM      1  C7  UNL     1      16.399  93.595  85.374  0.00  0.00    +0.000 A 
ATOM      2  C8  UNL     1      15.973  94.203  86.566  0.00  0.00    +0.000 A 
ATOM      3  C9  UNL     1      14.625  94.518  86.744  0.00  0.00    +0.000 A 
ATOM      4  O1  UNL     1      14.286  95.062  87.825  0.00  0.00    +0.000 OA
ATOM      5  C10 UNL     1      13.689  94.224  85.722  0.00  0.00    +0.000 A 
ATOM      6  C11 UNL     1      12.286  94.498  85.786  0.00  0.00    +0.000 A 
ATOM      7  C12 UNL     1      11.467  94.156  84.703  0.00  0.00    +0.000 A 
ATOM      8  C13 UNL     1      11.994  93.551  83.560  0.00  0.00    +0.000 A 
ATOM      9  C14 UNL     1      13.358  93.281  83.488  0.00  0.00    +0.000 A 
ATOM     10  C15 UNL     1      14.203  93.609  84.550  0.00  0.00    +0.000 A 
ATOM     11  O2  UNL     1      15.497  93.331  84.434  0.00  0.00    +0.000 OA
ENDROOT
BRANCH   1  17
ATOM     12  C1  UNL     1      18.580  92.408  85.977  0.00  0.00    +0.000 A 
ATOM     13  C2  UNL     1      19.911  92.092  85.683  0.00  0.00    +0.000 A 
ATOM     14  C3  UNL     1      20.513  92.583  84.520  0.00  0.00    +0.000 A 
ATOM     15  C4  UNL     1      19.780  93.392  83.653  0.00  0.00    +0.000 A 
ATOM     16  C5  UNL     1      18.450  93.712  83.941  0.00  0.00    +0.000 A 
ATOM     17  C6  UNL     1      17.824  93.226  85.108  0.00  0.00    +0.000 A 
BRANCH  14  18
ATOM     18  O5  UNL     1      21.838  92.274  84.220  0.00  0.00    +0.000 OA
ATOM     19  H10 UNL     1      22.567  92.977  84.257  0.00  0.00    +0.000 HD
ENDBRANCH  14  18
ENDBRANCH   1  17
BRANCH   8  20
ATOM     20  O3  UNL     1      11.169  93.216  82.489  0.00  0.00    +0.000 OA
ATOM     21  H8  UNL     1      11.537  92.781  81.651  0.00  0.00    +0.000 HD
ENDBRANCH   8  20
BRANCH   6  22
ATOM     22  O4  UNL     1      11.641  95.098  86.874  0.00  0.00    +0.000 OA
ATOM     23  H9  UNL     1      10.658  95.054  87.084  0.00  0.00    +0.000 HD
ENDBRANCH   6  22
TORSDOF 4
ENDMDL
MODEL 2
REMARK VINA RESULT:      -3.8      1.962      7.263
REMARK  Name = .\Apigenin.pdb
REMARK  4 active torsions:
REMARK  status: ('A' for Active; 'I' for Inactive)
REMARK    1  A    between atoms: C3_3  and  O5_20
REMARK    2  A    between atoms: C6_6  and  C7_7
REMARK    3  A    between atoms: C11_12  and  O4_19
REMARK    4  A    between atoms: C13_14  and  O3_18
REMARK                            x       y       z     vdW  Elec       q    Type
REMARK                         _______ _______ _______ _____ _____    ______ ____
ROOT
ATOM      1  C7  UNL     1      16.711  93.365  84.123  0.00  0.00    +0.000 A 
ATOM      2  C8  UNL     1      17.328  94.002  83.035  0.00  0.00    +0.000 A 
ATOM      3  C9  UNL     1      18.720  94.028  82.941  0.00  0.00    +0.000 A 
ATOM      4  O1  UNL     1      19.232  94.610  81.952  0.00  0.00    +0.000 OA
ATOM      5  C10 UNL     1      19.508  93.413  83.944  0.00  0.00    +0.000 A 
ATOM      6  C11 UNL     1      20.939  93.373  83.960  0.00  0.00    +0.000 A 
ATOM      7  C12 UNL     1      21.598  92.729  85.015  0.00  0.00    +0.000 A 
ATOM      8  C13 UNL     1      20.886  92.123  86.052  0.00  0.00    +0.000 A 
ATOM      9  C14 UNL     1      19.495  92.156  86.046  0.00  0.00    +0.000 A 
ATOM     10  C15 UNL     1      18.805  92.790  85.010  0.00  0.00    +0.000 A 
ATOM     11  O2  UNL     1      17.477  92.796  85.048  0.00  0.00    +0.000 OA
ENDROOT
BRANCH   1  17
ATOM     12  C1  UNL     1      14.603  92.445  85.238  0.00  0.00    +0.000 A 
ATOM     13  C2  UNL     1      13.210  92.414  85.360  0.00  0.00    +0.000 A 
ATOM     14  C3  UNL     1      12.412  93.225  84.547  0.00  0.00    +0.000 A 
ATOM     15  C4  UNL     1      13.012  94.066  83.610  0.00  0.00    +0.000 A 
ATOM     16  C5  UNL     1      14.403  94.102  83.483  0.00  0.00    +0.000 A 
ATOM     17  C6  UNL     1      15.226  93.293  84.295  0.00  0.00    +0.000 A 
BRANCH  14  18
ATOM     18  O5  UNL     1      11.024  93.200  84.661  0.00  0.00    +0.000 OA
ATOM     19  H10 UNL     1      10.535  92.381  85.005  0.00  0.00    +0.000 HD
ENDBRANCH  14  18
ENDBRANCH   1  17
BRANCH   8  20
ATOM     20  O3  UNL     1      21.554  91.486  87.095  0.00  0.00    +0.000 OA
ATOM     21  H8  UNL     1      21.811  91.979  87.941  0.00  0.00    +0.000 HD
ENDBRANCH   8  20
BRANCH   6  22
ATOM     22  O4  UNL     1      21.761  93.941  82.981  0.00  0.00    +0.000 OA
ATOM     23  H9  UNL     1      22.540  93.498  82.524  0.00  0.00    +0.000 HD
ENDBRANCH   6  22
TORSDOF 4
ENDMDL
MODEL 3
REMARK VINA RESULT:      -3.4      2.127      2.388
REMARK  Name = .\Apigenin.pdb
REMARK  4 active torsions:
REMARK  status: ('A' for Active; 'I' for Inactive)
REMARK    1  A    between atoms: C3_3  and  O5_20
REMARK    2  A    between atoms: C6_6  and  C7_7
REMARK    3  A    between atoms: C11_12  and  O4_19
REMARK    4  A    between atoms: C13_14  and  O3_18
REMARK                            x       y       z     vdW  Elec       q    Type
REMARK                         _______ _______ _______ _____ _____    ______ ____
ROOT
ATOM      1  C7  UNL     1      16.885  93.697  84.534  0.00  0.00    +0.000 A 
ATOM      2  C8  UNL     1      16.243  94.609  85.386  0.00  0.00    +0.000 A 
ATOM      3  C9  UNL     1      15.007  94.285  85.949  0.00  0.00    +0.000 A 
ATOM      4  O1  UNL     1      14.466  95.130  86.706  0.00  0.00    +0.000 OA
ATOM      5  C10 UNL     1      14.402  93.038  85.657  0.00  0.00    +0.000 A 
ATOM      6  C11 UNL     1      13.142  92.593  86.170  0.00  0.00    +0.000 A 
ATOM      7  C12 UNL     1      12.655  91.333  85.802  0.00  0.00    +0.000 A 
ATOM      8  C13 UNL     1      13.377  90.500  84.944  0.00  0.00    +0.000 A 
ATOM      9  C14 UNL     1      14.603  90.923  84.440  0.00  0.00    +0.000 A 
ATOM     10  C15 UNL     1      15.118  92.174  84.786  0.00  0.00    +0.000 A 
ATOM     11  O2  UNL     1      16.292  92.534  84.280  0.00  0.00    +0.000 OA
ENDROOT
BRANCH   1  17
ATOM     12  C1  UNL     1      19.440  93.713  84.539  0.00  0.00    +0.000 A 
ATOM     13  C2  UNL     1      20.653  93.984  83.897  0.00  0.00    +0.000 A 
ATOM     14  C3  UNL     1      20.664  94.514  82.603  0.00  0.00    +0.000 A 
ATOM     15  C4  UNL     1      19.457  94.772  81.953  0.00  0.00    +0.000 A 
ATOM     16  C5  UNL     1      18.242  94.504  82.588  0.00  0.00    +0.000 A 
ATOM     17  C6  UNL     1      18.210  93.968  83.893  0.00  0.00    +0.000 A 
BRANCH  14  18
ATOM     18  O5  UNL     1      21.867  94.789  81.956  0.00  0.00    +0.000 OA
ATOM     19  H10 UNL     1      21.975  94.652  80.958  0.00  0.00    +0.000 HD
ENDBRANCH  14  18
ENDBRANCH   1  17
BRANCH   8  20
ATOM     20  O3  UNL     1      12.881  89.248  84.586  0.00  0.00    +0.000 OA
ATOM     21  H8  UNL     1      12.081  88.840  85.054  0.00  0.00    +0.000 HD
ENDBRANCH   8  20
BRANCH   6  22
ATOM     22  O4  UNL     1      12.329  93.334  87.035  0.00  0.00    +0.000 OA
ATOM     23  H9  UNL     1      12.309  94.336  87.125  0.00  0.00    +0.000 HD
ENDBRANCH   6  22
TORSDOF 4
ENDMDL
MODEL 4
REMARK VINA RESULT:      -3.3      2.008      2.591
REMARK  Name = .\Apigenin.pdb
REMARK  4 active torsions:
REMARK  status: ('A' for Active; 'I' for Inactive)
REMARK    1  A    between atoms: C3_3  and  O5_20
REMARK    2  A    between atoms: C6_6  and  C7_7
REMARK    3  A    between atoms: C11_12  and  O4_19
REMARK    4  A    between atoms: C13_14  and  O3_18
REMARK                            x       y       z     vdW  Elec       q    Type
REMARK                         _______ _______ _______ _____ _____    ______ ____
ROOT
ATOM      1  C7  UNL     1      16.814  92.886  84.362  0.00  0.00    +0.000 A 
ATOM      2  C8  UNL     1      16.587  91.596  84.867  0.00  0.00    +0.000 A 
ATOM      3  C9  UNL     1      15.307  91.227  85.283  0.00  0.00    +0.000 A 
ATOM      4  O1  UNL     1      15.147  90.064  85.730  0.00  0.00    +0.000 OA
ATOM      5  C10 UNL     1      14.240  92.155  85.197  0.00  0.00    +0.000 A 
ATOM      6  C11 UNL     1      12.888  91.896  85.591  0.00  0.00    +0.000 A 
ATOM      7  C12 UNL     1      11.926  92.904  85.452  0.00  0.00    +0.000 A 
ATOM      8  C13 UNL     1      12.259  94.157  84.935  0.00  0.00    +0.000 A 
ATOM      9  C14 UNL     1      13.570  94.419  84.550  0.00  0.00    +0.000 A 
ATOM     10  C15 UNL     1      14.555  93.437  84.675  0.00  0.00    +0.000 A 
ATOM     11  O2  UNL     1      15.792  93.734  84.292  0.00  0.00    +0.000 OA
ENDROOT
BRANCH   1  17
ATOM     12  C1  UNL     1      19.334  93.193  84.656  0.00  0.00    +0.000 A 
ATOM     13  C2  UNL     1      20.564  93.652  84.175  0.00  0.00    +0.000 A 
ATOM     14  C3  UNL     1      20.645  94.282  82.929  0.00  0.00    +0.000 A 
ATOM     15  C4  UNL     1      19.490  94.452  82.166  0.00  0.00    +0.000 A 
ATOM     16  C5  UNL     1      18.258  93.996  82.641  0.00  0.00    +0.000 A 
ATOM     17  C6  UNL     1      18.155  93.358  83.894  0.00  0.00    +0.000 A 
BRANCH  14  18
ATOM     18  O5  UNL     1      21.866  94.743  82.442  0.00  0.00    +0.000 OA
ATOM     19  H10 UNL     1      22.160  95.704  82.573  0.00  0.00    +0.000 HD
ENDBRANCH  14  18
ENDBRANCH   1  17
BRANCH   8  20
ATOM     20  O3  UNL     1      11.292  95.151  84.803  0.00  0.00    +0.000 OA
ATOM     21  H8  UNL     1      10.307  94.926  84.719  0.00  0.00    +0.000 HD
ENDBRANCH   8  20
BRANCH   6  22
ATOM     22  O4  UNL     1      12.432  90.684  86.120  0.00  0.00    +0.000 OA
ATOM     23  H9  UNL     1      12.951  89.823  86.175  0.00  0.00    +0.000 HD
ENDBRANCH   6  22
TORSDOF 4
ENDMDL
MODEL 5
REMARK VINA RESULT:      -3.2      1.938      7.247
REMARK  Name = .\Apigenin.pdb
REMARK  4 active torsions:
REMARK  status: ('A' for Active; 'I' for Inactive)
REMARK    1  A    between atoms: C3_3  and  O5_20
REMARK    2  A    between atoms: C6_6  and  C7_7
REMARK    3  A    between atoms: C11_12  and  O4_19
REMARK    4  A    between atoms: C13_14  and  O3_18
REMARK                            x       y       z     vdW  Elec       q    Type
REMARK                         _______ _______ _______ _____ _____    ______ ____
ROOT
ATOM      1  C7  UNL     1      16.289  93.886  85.477  0.00  0.00    +0.000 A 
ATOM      2  C8  UNL     1      16.466  93.724  84.093  0.00  0.00    +0.000 A 
ATOM      3  C9  UNL     1      17.725  93.399  83.586  0.00  0.00    +0.000 A 
ATOM      4  O1  UNL     1      17.841  93.264  82.342  0.00  0.00    +0.000 OA
ATOM      5  C10 UNL     1      18.822  93.233  84.467  0.00  0.00    +0.000 A 
ATOM      6  C11 UNL     1      20.156  92.900  84.069  0.00  0.00    +0.000 A 
ATOM      7  C12 UNL     1      21.152  92.765  85.045  0.00  0.00    +0.000 A 
ATOM      8  C13 UNL     1      20.867  92.947  86.400  0.00  0.00    +0.000 A 
ATOM      9  C14 UNL     1      19.573  93.270  86.797  0.00  0.00    +0.000 A 
ATOM     10  C15 UNL     1      18.557  93.414  85.850  0.00  0.00    +0.000 A 
ATOM     11  O2  UNL     1      17.337  93.723  86.278  0.00  0.00    +0.000 OA
ENDROOT
BRANCH   1  17
ATOM     12  C1  UNL     1      14.862  94.846  87.366  0.00  0.00    +0.000 A 
ATOM     13  C2  UNL     1      13.607  95.151  87.904  0.00  0.00    +0.000 A 
ATOM     14  C3  UNL     1      12.441  94.852  87.192  0.00  0.00    +0.000 A 
ATOM     15  C4  UNL     1      12.535  94.246  85.938  0.00  0.00    +0.000 A 
ATOM     16  C5  UNL     1      13.785  93.939  85.395  0.00  0.00    +0.000 A 
ATOM     17  C6  UNL     1      14.973  94.233  86.098  0.00  0.00    +0.000 A 
BRANCH  14  18
ATOM     18  O5  UNL     1      11.188  95.151  87.720  0.00  0.00    +0.000 OA
ATOM     19  H10 UNL     1      10.960  96.082  88.050  0.00  0.00    +0.000 HD
ENDBRANCH  14  18
ENDBRANCH   1  17
BRANCH   8  20
ATOM     20  O3  UNL     1      21.867  92.809  87.360  0.00  0.00    +0.000 OA
ATOM     21  H8  UNL     1      21.687  92.369  88.255  0.00  0.00    +0.000 HD
ENDBRANCH   8  20
BRANCH   6  22
ATOM     22  O4  UNL     1      20.563  92.693  82.747  0.00  0.00    +0.000 OA
ATOM     23  H9  UNL     1      21.287  92.068  82.436  0.00  0.00    +0.000 HD
ENDBRANCH   6  22
TORSDOF 4
ENDMDL
MODEL 6
REMARK VINA RESULT:      -2.0      2.342      3.155
REMARK  Name = .\Apigenin.pdb
REMARK  4 active torsions:
REMARK  status: ('A' for Active; 'I' for Inactive)
REMARK    1  A    between atoms: C3_3  and  O5_20
REMARK    2  A    between atoms: C6_6  and  C7_7
REMARK    3  A    between atoms: C11_12  and  O4_19
REMARK    4  A    between atoms: C13_14  and  O3_18
REMARK                            x       y       z     vdW  Elec       q    Type
REMARK                         _______ _______ _______ _____ _____    ______ ____
ROOT
ATOM      1  C7  UNL     1      16.781  93.897  84.921  0.00  0.00    +0.000 A 
ATOM      2  C8  UNL     1      16.129  94.723  83.991  0.00  0.00    +0.000 A 
ATOM      3  C9  UNL     1      14.868  94.368  83.509  0.00  0.00    +0.000 A 
ATOM      4  O1  UNL     1      14.319  95.135  82.678  0.00  0.00    +0.000 OA
ATOM      5  C10 UNL     1      14.249  93.176  83.957  0.00  0.00    +0.000 A 
ATOM      6  C11 UNL     1      12.963  92.706  83.537  0.00  0.00    +0.000 A 
ATOM      7  C12 UNL     1      12.465  91.506  84.059  0.00  0.00    +0.000 A 
ATOM      8  C13 UNL     1      13.198  90.758  84.983  0.00  0.00    +0.000 A 
ATOM      9  C14 UNL     1      14.449  91.206  85.397  0.00  0.00    +0.000 A 
ATOM     10  C15 UNL     1      14.976  92.398  84.896  0.00  0.00    +0.000 A 
ATOM     11  O2  UNL     1      16.174  92.784  85.322  0.00  0.00    +0.000 OA
ENDROOT
BRANCH   1  17
ATOM     12  C1  UNL     1      19.334  93.896  84.812  0.00  0.00    +0.000 A 
ATOM     13  C2  UNL     1      20.572  94.207  85.383  0.00  0.00    +0.000 A 
ATOM     14  C3  UNL     1      20.638  94.832  86.632  0.00  0.00    +0.000 A 
ATOM     15  C4  UNL     1      19.458  95.145  87.309  0.00  0.00    +0.000 A 
ATOM     16  C5  UNL     1      18.218  94.837  86.745  0.00  0.00    +0.000 A 
ATOM     17  C6  UNL     1      18.131  94.207  85.485  0.00  0.00    +0.000 A 
BRANCH  14  18
ATOM     18  O5  UNL     1      21.866  95.145  87.209  0.00  0.00    +0.000 OA
ATOM     19  H10 UNL     1      22.030  96.041  87.653  0.00  0.00    +0.000 HD
ENDBRANCH  14  18
ENDBRANCH   1  17
BRANCH   8  20
ATOM     20  O3  UNL     1      12.691  89.565  85.494  0.00  0.00    +0.000 OA
ATOM     21  H8  UNL     1      12.540  89.435  86.487  0.00  0.00    +0.000 HD
ENDBRANCH   8  20
BRANCH   6  22
ATOM     22  O4  UNL     1      12.137  93.364  82.621  0.00  0.00    +0.000 OA
ATOM     23  H9  UNL     1      12.146  94.347  82.406  0.00  0.00    +0.000 HD
ENDBRANCH   6  22
TORSDOF 4
ENDMDL
MODEL 7
REMARK VINA RESULT:      -1.0      2.060      2.874
REMARK  Name = .\Apigenin.pdb
REMARK  4 active torsions:
REMARK  status: ('A' for Active; 'I' for Inactive)
REMARK    1  A    between atoms: C3_3  and  O5_20
REMARK    2  A    between atoms: C6_6  and  C7_7
REMARK    3  A    between atoms: C11_12  and  O4_19
REMARK    4  A    between atoms: C13_14  and  O3_18
REMARK                            x       y       z     vdW  Elec       q    Type
REMARK                         _______ _______ _______ _____ _____    ______ ____
ROOT
ATOM      1  C7  UNL     1      16.687  92.963  85.167  0.00  0.00    +0.000 A 
ATOM      2  C8  UNL     1      16.368  91.597  85.222  0.00  0.00    +0.000 A 
ATOM      3  C9  UNL     1      15.099  91.163  84.834  0.00  0.00    +0.000 A 
ATOM      4  O1  UNL     1      14.854  89.932  84.899  0.00  0.00    +0.000 OA
ATOM      5  C10 UNL     1      14.136  92.101  84.389  0.00  0.00    +0.000 A 
ATOM      6  C11 UNL     1      12.806  91.780  83.967  0.00  0.00    +0.000 A 
ATOM      7  C12 UNL     1      11.951  92.806  83.547  0.00  0.00    +0.000 A 
ATOM      8  C13 UNL     1      12.370  94.137  83.531  0.00  0.00    +0.000 A 
ATOM      9  C14 UNL     1      13.661  94.460  83.939  0.00  0.00    +0.000 A 
ATOM     10  C15 UNL     1      14.540  93.462  84.364  0.00  0.00    +0.000 A 
ATOM     11  O2  UNL     1      15.762  93.819  84.744  0.00  0.00    +0.000 OA
ENDROOT
BRANCH   1  17
ATOM     12  C1  UNL     1      19.241  92.985  85.072  0.00  0.00    +0.000 A 
ATOM     13  C2  UNL     1      20.465  93.529  85.473  0.00  0.00    +0.000 A 
ATOM     14  C3  UNL     1      20.502  94.602  86.370  0.00  0.00    +0.000 A 
ATOM     15  C4  UNL     1      19.308  95.129  86.864  0.00  0.00    +0.000 A 
ATOM     16  C5  UNL     1      18.082  94.590  86.467  0.00  0.00    +0.000 A 
ATOM     17  C6  UNL     1      18.024  93.508  85.563  0.00  0.00    +0.000 A 
BRANCH  14  18
ATOM     18  O5  UNL     1      21.716  95.151  86.775  0.00  0.00    +0.000 OA
ATOM     19  H10 UNL     1      21.763  96.055  87.230  0.00  0.00    +0.000 HD
ENDBRANCH  14  18
ENDBRANCH   1  17
BRANCH   8  20
ATOM     20  O3  UNL     1      11.509  95.148  83.111  0.00  0.00    +0.000 OA
ATOM     21  H8  UNL     1      10.505  95.017  83.093  0.00  0.00    +0.000 HD
ENDBRANCH   8  20
BRANCH   6  22
ATOM     22  O4  UNL     1      12.271  90.487  83.938  0.00  0.00    +0.000 OA
ATOM     23  H9  UNL     1      11.358  90.211  84.257  0.00  0.00    +0.000 HD
ENDBRANCH   6  22
TORSDOF 4
ENDMDL
