MODEL 1
REMARK VINA RESULT:      -5.9      0.000      0.000
REMARK  Name = .\Apigenin.pdb
REMARK  4 active torsions:
REMARK  status: ('A' for Active; 'I' for Inactive)
REMARK    1  A    between atoms: C3_3  and  O5_20
REMARK    2  A    between atoms: C6_6  and  C7_7
REMARK    3  A    between atoms: C11_12  and  O4_19
REMARK    4  A    between atoms: C13_14  and  O3_18
REMARK                            x       y       z     vdW  Elec       q    Type
REMARK                         _______ _______ _______ _____ _____    ______ ____
ROOT
ATOM      1  C7  UNL     1     -12.856  76.079  71.417  0.00  0.00    +0.000 A 
ATOM      2  C8  UNL     1     -13.721  75.393  70.551  0.00  0.00    +0.000 A 
ATOM      3  C9  UNL     1     -14.984  74.998  70.997  0.00  0.00    +0.000 A 
ATOM      4  O1  UNL     1     -15.727  74.386  70.190  0.00  0.00    +0.000 OA
ATOM      5  C10 UNL     1     -15.388  75.290  72.323  0.00  0.00    +0.000 A 
ATOM      6  C11 UNL     1     -16.653  74.938  72.895  0.00  0.00    +0.000 A 
ATOM      7  C12 UNL     1     -16.928  75.288  74.223  0.00  0.00    +0.000 A 
ATOM      8  C13 UNL     1     -15.993  75.974  75.000  0.00  0.00    +0.000 A 
ATOM      9  C14 UNL     1     -14.761  76.320  74.453  0.00  0.00    +0.000 A 
ATOM     10  C15 UNL     1     -14.453  75.987  73.133  0.00  0.00    +0.000 A 
ATOM     11  O2  UNL     1     -13.264  76.339  72.655  0.00  0.00    +0.000 OA
ENDROOT
BRANCH   1  17
ATOM     12  C1  UNL     1     -11.044  76.537  69.674  0.00  0.00    +0.000 A 
ATOM     13  C2  UNL     1      -9.756  76.974  69.349  0.00  0.00    +0.000 A 
ATOM     14  C3  UNL     1      -8.887  77.418  70.351  0.00  0.00    +0.000 A 
ATOM     15  C4  UNL     1      -9.311  77.423  71.680  0.00  0.00    +0.000 A 
ATOM     16  C5  UNL     1     -10.597  76.987  72.011  0.00  0.00    +0.000 A 
ATOM     17  C6  UNL     1     -11.489  76.536  71.015  0.00  0.00    +0.000 A 
BRANCH  14  18
ATOM     18  O5  UNL     1      -7.602  77.855  70.037  0.00  0.00    +0.000 OA
ATOM     19  H10 UNL     1      -7.349  78.122  69.093  0.00  0.00    +0.000 HD
ENDBRANCH  14  18
ENDBRANCH   1  17
BRANCH   8  20
ATOM     20  O3  UNL     1     -16.280  76.315  76.320  0.00  0.00    +0.000 OA
ATOM     21  H8  UNL     1     -15.712  75.982  77.090  0.00  0.00    +0.000 HD
ENDBRANCH   8  20
BRANCH   6  22
ATOM     22  O4  UNL     1     -17.669  74.254  72.219  0.00  0.00    +0.000 OA
ATOM     23  H9  UNL     1     -17.680  73.273  71.993  0.00  0.00    +0.000 HD
ENDBRANCH   6  22
TORSDOF 4
ENDMDL
MODEL 2
REMARK VINA RESULT:      -5.6      1.661      6.711
REMARK  Name = .\Apigenin.pdb
REMARK  4 active torsions:
REMARK  status: ('A' for Active; 'I' for Inactive)
REMARK    1  A    between atoms: C3_3  and  O5_20
REMARK    2  A    between atoms: C6_6  and  C7_7
REMARK    3  A    between atoms: C11_12  and  O4_19
REMARK    4  A    between atoms: C13_14  and  O3_18
REMARK                            x       y       z     vdW  Elec       q    Type
REMARK                         _______ _______ _______ _____ _____    ______ ____
ROOT
ATOM      1  C7  UNL     1     -12.336  76.408  71.460  0.00  0.00    +0.000 A 
ATOM      2  C8  UNL     1     -11.729  76.524  70.200  0.00  0.00    +0.000 A 
ATOM      3  C9  UNL     1     -10.441  77.054  70.094  0.00  0.00    +0.000 A 
ATOM      4  O1  UNL     1      -9.934  77.141  68.947  0.00  0.00    +0.000 OA
ATOM      5  C10 UNL     1      -9.752  77.474  71.257  0.00  0.00    +0.000 A 
ATOM      6  C11 UNL     1      -8.433  78.031  71.277  0.00  0.00    +0.000 A 
ATOM      7  C12 UNL     1      -7.864  78.407  72.500  0.00  0.00    +0.000 A 
ATOM      8  C13 UNL     1      -8.557  78.248  73.702  0.00  0.00    +0.000 A 
ATOM      9  C14 UNL     1      -9.839  77.707  73.692  0.00  0.00    +0.000 A 
ATOM     10  C15 UNL     1     -10.437  77.322  72.491  0.00  0.00    +0.000 A 
ATOM     11  O2  UNL     1     -11.663  76.810  72.533  0.00  0.00    +0.000 OA
ENDROOT
BRANCH   1  17
ATOM     12  C1  UNL     1     -14.348  75.025  70.703  0.00  0.00    +0.000 A 
ATOM     13  C2  UNL     1     -15.635  74.528  70.935  0.00  0.00    +0.000 A 
ATOM     14  C3  UNL     1     -16.311  74.843  72.118  0.00  0.00    +0.000 A 
ATOM     15  C4  UNL     1     -15.695  75.658  73.069  0.00  0.00    +0.000 A 
ATOM     16  C5  UNL     1     -14.410  76.157  72.844  0.00  0.00    +0.000 A 
ATOM     17  C6  UNL     1     -13.711  75.850  71.657  0.00  0.00    +0.000 A 
BRANCH  14  18
ATOM     18  O5  UNL     1     -17.593  74.354  72.357  0.00  0.00    +0.000 OA
ATOM     19  H10 UNL     1     -17.959  74.265  73.298  0.00  0.00    +0.000 HD
ENDBRANCH  14  18
ENDBRANCH   1  17
BRANCH   8  20
ATOM     20  O3  UNL     1      -7.979  78.626  74.911  0.00  0.00    +0.000 OA
ATOM     21  H8  UNL     1      -8.389  78.366  75.800  0.00  0.00    +0.000 HD
ENDBRANCH   8  20
BRANCH   6  22
ATOM     22  O4  UNL     1      -7.640  78.240  70.144  0.00  0.00    +0.000 OA
ATOM     23  H9  UNL     1      -7.936  78.163  69.185  0.00  0.00    +0.000 HD
ENDBRANCH   6  22
TORSDOF 4
ENDMDL
MODEL 3
REMARK VINA RESULT:      -5.5      1.638      7.280
REMARK  Name = .\Apigenin.pdb
REMARK  4 active torsions:
REMARK  status: ('A' for Active; 'I' for Inactive)
REMARK    1  A    between atoms: C3_3  and  O5_20
REMARK    2  A    between atoms: C6_6  and  C7_7
REMARK    3  A    between atoms: C11_12  and  O4_19
REMARK    4  A    between atoms: C13_14  and  O3_18
REMARK                            x       y       z     vdW  Elec       q    Type
REMARK                         _______ _______ _______ _____ _____    ______ ____
ROOT
ATOM      1  C7  UNL     1     -12.474  76.763  72.745  0.00  0.00    +0.000 A 
ATOM      2  C8  UNL     1     -11.423  77.197  73.568  0.00  0.00    +0.000 A 
ATOM      3  C9  UNL     1     -10.165  77.445  73.018  0.00  0.00    +0.000 A 
ATOM      4  O1  UNL     1      -9.251  77.832  73.790  0.00  0.00    +0.000 OA
ATOM      5  C10 UNL     1      -9.949  77.257  71.631  0.00  0.00    +0.000 A 
ATOM      6  C11 UNL     1      -8.709  77.477  70.952  0.00  0.00    +0.000 A 
ATOM      7  C12 UNL     1      -8.630  77.254  69.571  0.00  0.00    +0.000 A 
ATOM      8  C13 UNL     1      -9.741  76.821  68.843  0.00  0.00    +0.000 A 
ATOM      9  C14 UNL     1     -10.951  76.604  69.495  0.00  0.00    +0.000 A 
ATOM     10  C15 UNL     1     -11.065  76.817  70.870  0.00  0.00    +0.000 A 
ATOM     11  O2  UNL     1     -12.241  76.596  71.446  0.00  0.00    +0.000 OA
ENDROOT
BRANCH   1  17
ATOM     12  C1  UNL     1     -14.837  75.826  72.483  0.00  0.00    +0.000 A 
ATOM     13  C2  UNL     1     -16.110  75.582  73.008  0.00  0.00    +0.000 A 
ATOM     14  C3  UNL     1     -16.426  75.980  74.311  0.00  0.00    +0.000 A 
ATOM     15  C4  UNL     1     -15.462  76.625  75.087  0.00  0.00    +0.000 A 
ATOM     16  C5  UNL     1     -14.189  76.872  74.569  0.00  0.00    +0.000 A 
ATOM     17  C6  UNL     1     -13.850  76.477  73.257  0.00  0.00    +0.000 A 
BRANCH  14  18
ATOM     18  O5  UNL     1     -17.691  75.742  74.842  0.00  0.00    +0.000 OA
ATOM     19  H10 UNL     1     -18.214  76.472  75.312  0.00  0.00    +0.000 HD
ENDBRANCH  14  18
ENDBRANCH   1  17
BRANCH   8  20
ATOM     20  O3  UNL     1      -9.649  76.602  67.471  0.00  0.00    +0.000 OA
ATOM     21  H8  UNL     1      -8.989  77.111  66.895  0.00  0.00    +0.000 HD
ENDBRANCH   8  20
BRANCH   6  22
ATOM     22  O4  UNL     1      -7.530  77.910  71.569  0.00  0.00    +0.000 OA
ATOM     23  H9  UNL     1      -6.760  78.381  71.124  0.00  0.00    +0.000 HD
ENDBRANCH   6  22
TORSDOF 4
ENDMDL
MODEL 4
REMARK VINA RESULT:      -5.2      1.869      7.096
REMARK  Name = .\Apigenin.pdb
REMARK  4 active torsions:
REMARK  status: ('A' for Active; 'I' for Inactive)
REMARK    1  A    between atoms: C3_3  and  O5_20
REMARK    2  A    between atoms: C6_6  and  C7_7
REMARK    3  A    between atoms: C11_12  and  O4_19
REMARK    4  A    between atoms: C13_14  and  O3_18
REMARK                            x       y       z     vdW  Elec       q    Type
REMARK                         _______ _______ _______ _____ _____    ______ ____
ROOT
ATOM      1  C7  UNL     1     -12.938  76.649  72.665  0.00  0.00    +0.000 A 
ATOM      2  C8  UNL     1     -12.752  77.350  73.867  0.00  0.00    +0.000 A 
ATOM      3  C9  UNL     1     -11.549  78.018  74.104  0.00  0.00    +0.000 A 
ATOM      4  O1  UNL     1     -11.423  78.633  75.193  0.00  0.00    +0.000 OA
ATOM      5  C10 UNL     1     -10.519  77.986  73.133  0.00  0.00    +0.000 A 
ATOM      6  C11 UNL     1      -9.246  78.629  73.260  0.00  0.00    +0.000 A 
ATOM      7  C12 UNL     1      -8.313  78.519  72.221  0.00  0.00    +0.000 A 
ATOM      8  C13 UNL     1      -8.601  77.795  71.062  0.00  0.00    +0.000 A 
ATOM      9  C14 UNL     1      -9.836  77.167  70.930  0.00  0.00    +0.000 A 
ATOM     10  C15 UNL     1     -10.789  77.255  71.946  0.00  0.00    +0.000 A 
ATOM     11  O2  UNL     1     -11.953  76.638  71.773  0.00  0.00    +0.000 OA
ENDROOT
BRANCH   1  17
ATOM     12  C1  UNL     1     -15.302  75.848  73.214  0.00  0.00    +0.000 A 
ATOM     13  C2  UNL     1     -16.457  75.143  72.859  0.00  0.00    +0.000 A 
ATOM     14  C3  UNL     1     -16.534  74.487  71.626  0.00  0.00    +0.000 A 
ATOM     15  C4  UNL     1     -15.450  74.538  70.749  0.00  0.00    +0.000 A 
ATOM     16  C5  UNL     1     -14.293  75.240  71.097  0.00  0.00    +0.000 A 
ATOM     17  C6  UNL     1     -14.197  75.910  72.336  0.00  0.00    +0.000 A 
BRANCH  14  18
ATOM     18  O5  UNL     1     -17.679  73.781  71.265  0.00  0.00    +0.000 OA
ATOM     19  H10 UNL     1     -18.128  73.136  71.905  0.00  0.00    +0.000 HD
ENDBRANCH  14  18
ENDBRANCH   1  17
BRANCH   8  20
ATOM     20  O3  UNL     1      -7.664  77.694  70.037  0.00  0.00    +0.000 OA
ATOM     21  H8  UNL     1      -6.792  77.193  70.161  0.00  0.00    +0.000 HD
ENDBRANCH   8  20
BRANCH   6  22
ATOM     22  O4  UNL     1      -8.842  79.381  74.368  0.00  0.00    +0.000 OA
ATOM     23  H9  UNL     1      -8.303  79.050  75.150  0.00  0.00    +0.000 HD
ENDBRANCH   6  22
TORSDOF 4
ENDMDL
MODEL 5
REMARK VINA RESULT:      -5.0      2.659      3.938
REMARK  Name = .\Apigenin.pdb
REMARK  4 active torsions:
REMARK  status: ('A' for Active; 'I' for Inactive)
REMARK    1  A    between atoms: C3_3  and  O5_20
REMARK    2  A    between atoms: C6_6  and  C7_7
REMARK    3  A    between atoms: C11_12  and  O4_19
REMARK    4  A    between atoms: C13_14  and  O3_18
REMARK                            x       y       z     vdW  Elec       q    Type
REMARK                         _______ _______ _______ _____ _____    ______ ____
ROOT
ATOM      1  C7  UNL     1     -11.817  77.915  72.650  0.00  0.00    +0.000 A 
ATOM      2  C8  UNL     1     -12.689  79.010  72.759  0.00  0.00    +0.000 A 
ATOM      3  C9  UNL     1     -14.013  78.891  72.331  0.00  0.00    +0.000 A 
ATOM      4  O1  UNL     1     -14.760  79.895  72.445  0.00  0.00    +0.000 OA
ATOM      5  C10 UNL     1     -14.473  77.667  71.786  0.00  0.00    +0.000 A 
ATOM      6  C11 UNL     1     -15.802  77.423  71.314  0.00  0.00    +0.000 A 
ATOM      7  C12 UNL     1     -16.128  76.163  70.797  0.00  0.00    +0.000 A 
ATOM      8  C13 UNL     1     -15.181  75.138  70.735  0.00  0.00    +0.000 A 
ATOM      9  C14 UNL     1     -13.886  75.366  71.191  0.00  0.00    +0.000 A 
ATOM     10  C15 UNL     1     -13.527  76.611  71.712  0.00  0.00    +0.000 A 
ATOM     11  O2  UNL     1     -12.279  76.779  72.135  0.00  0.00    +0.000 OA
ENDROOT
BRANCH   1  17
ATOM     12  C1  UNL     1      -9.985  77.735  74.422  0.00  0.00    +0.000 A 
ATOM     13  C2  UNL     1      -8.634  77.790  74.780  0.00  0.00    +0.000 A 
ATOM     14  C3  UNL     1      -7.659  78.071  73.818  0.00  0.00    +0.000 A 
ATOM     15  C4  UNL     1      -8.040  78.298  72.495  0.00  0.00    +0.000 A 
ATOM     16  C5  UNL     1      -9.388  78.244  72.131  0.00  0.00    +0.000 A 
ATOM     17  C6  UNL     1     -10.387  77.962  73.087  0.00  0.00    +0.000 A 
BRANCH  14  18
ATOM     18  O5  UNL     1      -6.311  78.129  74.165  0.00  0.00    +0.000 OA
ATOM     19  H10 UNL     1      -5.698  77.332  74.041  0.00  0.00    +0.000 HD
ENDBRANCH  14  18
ENDBRANCH   1  17
BRANCH   8  20
ATOM     20  O3  UNL     1     -15.519  73.890  70.218  0.00  0.00    +0.000 OA
ATOM     21  H8  UNL     1     -16.201  73.294  70.672  0.00  0.00    +0.000 HD
ENDBRANCH   8  20
BRANCH   6  22
ATOM     22  O4  UNL     1     -16.836  78.366  71.325  0.00  0.00    +0.000 OA
ATOM     23  H9  UNL     1     -17.683  78.329  70.784  0.00  0.00    +0.000 HD
ENDBRANCH   6  22
TORSDOF 4
ENDMDL
MODEL 6
REMARK VINA RESULT:      -4.9      3.420      7.074
REMARK  Name = .\Apigenin.pdb
REMARK  4 active torsions:
REMARK  status: ('A' for Active; 'I' for Inactive)
REMARK    1  A    between atoms: C3_3  and  O5_20
REMARK    2  A    between atoms: C6_6  and  C7_7
REMARK    3  A    between atoms: C11_12  and  O4_19
REMARK    4  A    between atoms: C13_14  and  O3_18
REMARK                            x       y       z     vdW  Elec       q    Type
REMARK                         _______ _______ _______ _____ _____    ______ ____
ROOT
ATOM      1  C7  UNL     1     -12.155  78.265  73.033  0.00  0.00    +0.000 A 
ATOM      2  C8  UNL     1     -12.444  79.176  74.061  0.00  0.00    +0.000 A 
ATOM      3  C9  UNL     1     -11.423  79.627  74.899  0.00  0.00    +0.000 A 
ATOM      4  O1  UNL     1     -11.724  80.442  75.807  0.00  0.00    +0.000 OA
ATOM      5  C10 UNL     1     -10.098  79.163  74.713  0.00  0.00    +0.000 A 
ATOM      6  C11 UNL     1      -8.970  79.549  75.504  0.00  0.00    +0.000 A 
ATOM      7  C12 UNL     1      -7.708  79.015  75.213  0.00  0.00    +0.000 A 
ATOM      8  C13 UNL     1      -7.530  78.111  74.163  0.00  0.00    +0.000 A 
ATOM      9  C14 UNL     1      -8.620  77.729  73.388  0.00  0.00    +0.000 A 
ATOM     10  C15 UNL     1      -9.892  78.243  73.651  0.00  0.00    +0.000 A 
ATOM     11  O2  UNL     1     -10.902  77.848  72.883  0.00  0.00    +0.000 OA
ENDROOT
BRANCH   1  17
ATOM     12  C1  UNL     1     -13.031  76.531  71.372  0.00  0.00    +0.000 A 
ATOM     13  C2  UNL     1     -14.030  76.079  70.505  0.00  0.00    +0.000 A 
ATOM     14  C3  UNL     1     -15.207  76.816  70.338  0.00  0.00    +0.000 A 
ATOM     15  C4  UNL     1     -15.381  78.008  71.042  0.00  0.00    +0.000 A 
ATOM     16  C5  UNL     1     -14.386  78.465  71.910  0.00  0.00    +0.000 A 
ATOM     17  C6  UNL     1     -13.192  77.736  72.093  0.00  0.00    +0.000 A 
BRANCH  14  18
ATOM     18  O5  UNL     1     -16.208  76.374  69.475  0.00  0.00    +0.000 OA
ATOM     19  H10 UNL     1     -16.077  75.560  68.885  0.00  0.00    +0.000 HD
ENDBRANCH  14  18
ENDBRANCH   1  17
BRANCH   8  20
ATOM     20  O3  UNL     1      -6.270  77.587  73.884  0.00  0.00    +0.000 OA
ATOM     21  H8  UNL     1      -5.496  78.181  73.609  0.00  0.00    +0.000 HD
ENDBRANCH   8  20
BRANCH   6  22
ATOM     22  O4  UNL     1      -9.021  80.444  76.579  0.00  0.00    +0.000 OA
ATOM     23  H9  UNL     1      -9.387  80.254  77.497  0.00  0.00    +0.000 HD
ENDBRANCH   6  22
TORSDOF 4
ENDMDL
MODEL 7
REMARK VINA RESULT:      -4.9      1.817      2.865
REMARK  Name = .\Apigenin.pdb
REMARK  4 active torsions:
REMARK  status: ('A' for Active; 'I' for Inactive)
REMARK    1  A    between atoms: C3_3  and  O5_20
REMARK    2  A    between atoms: C6_6  and  C7_7
REMARK    3  A    between atoms: C11_12  and  O4_19
REMARK    4  A    between atoms: C13_14  and  O3_18
REMARK                            x       y       z     vdW  Elec       q    Type
REMARK                         _______ _______ _______ _____ _____    ______ ____
ROOT
ATOM      1  C7  UNL     1     -12.897  77.504  72.007  0.00  0.00    +0.000 A 
ATOM      2  C8  UNL     1     -13.420  78.758  72.360  0.00  0.00    +0.000 A 
ATOM      3  C9  UNL     1     -14.682  78.845  72.950  0.00  0.00    +0.000 A 
ATOM      4  O1  UNL     1     -15.113  79.987  73.250  0.00  0.00    +0.000 OA
ATOM      5  C10 UNL     1     -15.434  77.669  73.189  0.00  0.00    +0.000 A 
ATOM      6  C11 UNL     1     -16.735  77.629  73.784  0.00  0.00    +0.000 A 
ATOM      7  C12 UNL     1     -17.371  76.395  73.965  0.00  0.00    +0.000 A 
ATOM      8  C13 UNL     1     -16.760  75.201  73.577  0.00  0.00    +0.000 A 
ATOM      9  C14 UNL     1     -15.495  75.229  72.997  0.00  0.00    +0.000 A 
ATOM     10  C15 UNL     1     -14.833  76.443  72.801  0.00  0.00    +0.000 A 
ATOM     11  O2  UNL     1     -13.626  76.419  72.244  0.00  0.00    +0.000 OA
ENDROOT
BRANCH   1  17
ATOM     12  C1  UNL     1     -10.344  77.599  72.050  0.00  0.00    +0.000 A 
ATOM     13  C2  UNL     1      -9.112  77.418  71.413  0.00  0.00    +0.000 A 
ATOM     14  C3  UNL     1      -9.061  76.963  70.092  0.00  0.00    +0.000 A 
ATOM     15  C4  UNL     1     -10.247  76.690  69.409  0.00  0.00    +0.000 A 
ATOM     16  C5  UNL     1     -11.480  76.870  70.040  0.00  0.00    +0.000 A 
ATOM     17  C6  UNL     1     -11.554  77.327  71.373  0.00  0.00    +0.000 A 
BRANCH  14  18
ATOM     18  O5  UNL     1      -7.839  76.779  69.449  0.00  0.00    +0.000 OA
ATOM     19  H10 UNL     1      -7.394  75.869  69.405  0.00  0.00    +0.000 HD
ENDBRANCH  14  18
ENDBRANCH   1  17
BRANCH   8  20
ATOM     20  O3  UNL     1     -17.404  73.980  73.763  0.00  0.00    +0.000 OA
ATOM     21  H8  UNL     1     -17.614  73.625  74.688  0.00  0.00    +0.000 HD
ENDBRANCH   8  20
BRANCH   6  22
ATOM     22  O4  UNL     1     -17.448  78.754  74.214  0.00  0.00    +0.000 OA
ATOM     23  H9  UNL     1     -18.255  78.756  74.814  0.00  0.00    +0.000 HD
ENDBRANCH   6  22
TORSDOF 4
ENDMDL
MODEL 8
REMARK VINA RESULT:      -4.9      2.722      3.304
REMARK  Name = .\Apigenin.pdb
REMARK  4 active torsions:
REMARK  status: ('A' for Active; 'I' for Inactive)
REMARK    1  A    between atoms: C3_3  and  O5_20
REMARK    2  A    between atoms: C6_6  and  C7_7
REMARK    3  A    between atoms: C11_12  and  O4_19
REMARK    4  A    between atoms: C13_14  and  O3_18
REMARK                            x       y       z     vdW  Elec       q    Type
REMARK                         _______ _______ _______ _____ _____    ______ ____
ROOT
ATOM      1  C7  UNL     1     -11.940  77.264  71.996  0.00  0.00    +0.000 A 
ATOM      2  C8  UNL     1     -12.251  76.079  71.310  0.00  0.00    +0.000 A 
ATOM      3  C9  UNL     1     -13.541  75.879  70.816  0.00  0.00    +0.000 A 
ATOM      4  O1  UNL     1     -13.778  74.804  70.209  0.00  0.00    +0.000 OA
ATOM      5  C10 UNL     1     -14.534  76.870  71.007  0.00  0.00    +0.000 A 
ATOM      6  C11 UNL     1     -15.887  76.781  70.549  0.00  0.00    +0.000 A 
ATOM      7  C12 UNL     1     -16.771  77.837  70.804  0.00  0.00    +0.000 A 
ATOM      8  C13 UNL     1     -16.358  78.976  71.498  0.00  0.00    +0.000 A 
ATOM      9  C14 UNL     1     -15.044  79.072  71.948  0.00  0.00    +0.000 A 
ATOM     10  C15 UNL     1     -14.137  78.038  71.710  0.00  0.00    +0.000 A 
ATOM     11  O2  UNL     1     -12.893  78.176  72.159  0.00  0.00    +0.000 OA
ENDROOT
BRANCH   1  17
ATOM     12  C1  UNL     1     -10.316  77.590  73.942  0.00  0.00    +0.000 A 
ATOM     13  C2  UNL     1      -9.029  77.866  74.414  0.00  0.00    +0.000 A 
ATOM     14  C3  UNL     1      -7.985  78.111  73.517  0.00  0.00    +0.000 A 
ATOM     15  C4  UNL     1      -8.233  78.079  72.145  0.00  0.00    +0.000 A 
ATOM     16  C5  UNL     1      -9.516  77.804  71.666  0.00  0.00    +0.000 A 
ATOM     17  C6  UNL     1     -10.583  77.554  72.555  0.00  0.00    +0.000 A 
BRANCH  14  18
ATOM     18  O5  UNL     1      -6.700  78.387  73.979  0.00  0.00    +0.000 OA
ATOM     19  H10 UNL     1      -6.316  77.916  74.790  0.00  0.00    +0.000 HD
ENDBRANCH  14  18
ENDBRANCH   1  17
BRANCH   8  20
ATOM     20  O3  UNL     1     -17.248  80.019  71.746  0.00  0.00    +0.000 OA
ATOM     21  H8  UNL     1     -17.879  80.360  71.031  0.00  0.00    +0.000 HD
ENDBRANCH   8  20
BRANCH   6  22
ATOM     22  O4  UNL     1     -16.419  75.695  69.845  0.00  0.00    +0.000 OA
ATOM     23  H9  UNL     1     -16.960  75.739  68.998  0.00  0.00    +0.000 HD
ENDBRANCH   6  22
TORSDOF 4
ENDMDL
MODEL 9
REMARK VINA RESULT:      -4.9      3.216      7.238
REMARK  Name = .\Apigenin.pdb
REMARK  4 active torsions:
REMARK  status: ('A' for Active; 'I' for Inactive)
REMARK    1  A    between atoms: C3_3  and  O5_20
REMARK    2  A    between atoms: C6_6  and  C7_7
REMARK    3  A    between atoms: C11_12  and  O4_19
REMARK    4  A    between atoms: C13_14  and  O3_18
REMARK                            x       y       z     vdW  Elec       q    Type
REMARK                         _______ _______ _______ _____ _____    ______ ____
ROOT
ATOM      1  C7  UNL     1     -11.817  77.621  73.357  0.00  0.00    +0.000 A 
ATOM      2  C8  UNL     1     -12.017  77.962  74.704  0.00  0.00    +0.000 A 
ATOM      3  C9  UNL     1     -11.106  78.796  75.354  0.00  0.00    +0.000 A 
ATOM      4  O1  UNL     1     -11.321  79.076  76.560  0.00  0.00    +0.000 OA
ATOM      5  C10 UNL     1      -9.980  79.295  74.654  0.00  0.00    +0.000 A 
ATOM      6  C11 UNL     1      -8.978  80.154  75.209  0.00  0.00    +0.000 A 
ATOM      7  C12 UNL     1      -7.913  80.578  74.406  0.00  0.00    +0.000 A 
ATOM      8  C13 UNL     1      -7.808  80.179  73.071  0.00  0.00    +0.000 A 
ATOM      9  C14 UNL     1      -8.777  79.343  72.523  0.00  0.00    +0.000 A 
ATOM     10  C15 UNL     1      -9.852  78.902  73.296  0.00  0.00    +0.000 A 
ATOM     11  O2  UNL     1     -10.752  78.106  72.727  0.00  0.00    +0.000 OA
ENDROOT
BRANCH   1  17
ATOM     12  C1  UNL     1     -13.945  76.223  73.139  0.00  0.00    +0.000 A 
ATOM     13  C2  UNL     1     -14.782  75.398  72.381  0.00  0.00    +0.000 A 
ATOM     14  C3  UNL     1     -14.445  75.068  71.064  0.00  0.00    +0.000 A 
ATOM     15  C4  UNL     1     -13.266  75.566  70.509  0.00  0.00    +0.000 A 
ATOM     16  C5  UNL     1     -12.425  76.390  71.261  0.00  0.00    +0.000 A 
ATOM     17  C6  UNL     1     -12.748  76.736  72.591  0.00  0.00    +0.000 A 
BRANCH  14  18
ATOM     18  O5  UNL     1     -15.272  74.247  70.302  0.00  0.00    +0.000 OA
ATOM     19  H10 UNL     1     -16.170  74.570  69.960  0.00  0.00    +0.000 HD
ENDBRANCH  14  18
ENDBRANCH   1  17
BRANCH   8  20
ATOM     20  O3  UNL     1      -6.743  80.607  72.283  0.00  0.00    +0.000 OA
ATOM     21  H8  UNL     1      -5.879  80.081  72.225  0.00  0.00    +0.000 HD
ENDBRANCH   8  20
BRANCH   6  22
ATOM     22  O4  UNL     1      -8.973  80.621  76.528  0.00  0.00    +0.000 OA
ATOM     23  H9  UNL     1      -8.344  81.303  76.918  0.00  0.00    +0.000 HD
ENDBRANCH   6  22
TORSDOF 4
ENDMDL
