MODEL 1
REMARK VINA RESULT:      -5.0      0.000      0.000
REMARK  Name = .\Apigenin.pdb
REMARK  4 active torsions:
REMARK  status: ('A' for Active; 'I' for Inactive)
REMARK    1  A    between atoms: C3_3  and  O5_20
REMARK    2  A    between atoms: C6_6  and  C7_7
REMARK    3  A    between atoms: C11_12  and  O4_19
REMARK    4  A    between atoms: C13_14  and  O3_18
REMARK                            x       y       z     vdW  Elec       q    Type
REMARK                         _______ _______ _______ _____ _____    ______ ____
ROOT
ATOM      1  C7  UNL     1       7.440  69.480  99.209  0.00  0.00    +0.000 A 
ATOM      2  C8  UNL     1       8.269  68.623  99.949  0.00  0.00    +0.000 A 
ATOM      3  C9  UNL     1       8.544  67.340  99.474  0.00  0.00    +0.000 A 
ATOM      4  O1  UNL     1       9.291  66.604 100.167  0.00  0.00    +0.000 OA
ATOM      5  C10 UNL     1       7.985  66.904  98.248  0.00  0.00    +0.000 A 
ATOM      6  C11 UNL     1       8.192  65.616  97.659  0.00  0.00    +0.000 A 
ATOM      7  C12 UNL     1       7.578  65.311  96.438  0.00  0.00    +0.000 A 
ATOM      8  C13 UNL     1       6.768  66.240  95.782  0.00  0.00    +0.000 A 
ATOM      9  C14 UNL     1       6.561  67.495  96.347  0.00  0.00    +0.000 A 
ATOM     10  C15 UNL     1       7.157  67.832  97.563  0.00  0.00    +0.000 A 
ATOM     11  O2  UNL     1       6.930  69.043  98.062  0.00  0.00    +0.000 OA
ENDROOT
BRANCH   1  17
ATOM     12  C1  UNL     1       7.323  72.007  98.841  0.00  0.00    +0.000 A 
ATOM     13  C2  UNL     1       6.986  73.285  99.299  0.00  0.00    +0.000 A 
ATOM     14  C3  UNL     1       6.420  73.455 100.566  0.00  0.00    +0.000 A 
ATOM     15  C4  UNL     1       6.193  72.342 101.375  0.00  0.00    +0.000 A 
ATOM     16  C5  UNL     1       6.527  71.062 100.925  0.00  0.00    +0.000 A 
ATOM     17  C6  UNL     1       7.098  70.869  99.649  0.00  0.00    +0.000 A 
BRANCH  14  18
ATOM     18  O5  UNL     1       6.083  74.724 101.030  0.00  0.00    +0.000 OA
ATOM     19  H10 UNL     1       5.177  75.136 100.835  0.00  0.00    +0.000 HD
ENDBRANCH  14  18
ENDBRANCH   1  17
BRANCH   8  20
ATOM     20  O3  UNL     1       6.164  65.924  94.568  0.00  0.00    +0.000 OA
ATOM     21  H8  UNL     1       5.188  65.657  94.514  0.00  0.00    +0.000 HD
ENDBRANCH   8  20
BRANCH   6  22
ATOM     22  O4  UNL     1       8.979  64.603  98.218  0.00  0.00    +0.000 OA
ATOM     23  H9  UNL     1       9.306  63.774  97.750  0.00  0.00    +0.000 HD
ENDBRANCH   6  22
TORSDOF 4
ENDMDL
MODEL 2
REMARK VINA RESULT:      -4.4      1.644      6.842
REMARK  Name = .\Apigenin.pdb
REMARK  4 active torsions:
REMARK  status: ('A' for Active; 'I' for Inactive)
REMARK    1  A    between atoms: C3_3  and  O5_20
REMARK    2  A    between atoms: C6_6  and  C7_7
REMARK    3  A    between atoms: C11_12  and  O4_19
REMARK    4  A    between atoms: C13_14  and  O3_18
REMARK                            x       y       z     vdW  Elec       q    Type
REMARK                         _______ _______ _______ _____ _____    ______ ____
ROOT
ATOM      1  C7  UNL     1       6.977  68.572  98.721  0.00  0.00    +0.000 A 
ATOM      2  C8  UNL     1       6.259  68.280  99.891  0.00  0.00    +0.000 A 
ATOM      3  C9  UNL     1       5.875  69.312 100.748  0.00  0.00    +0.000 A 
ATOM      4  O1  UNL     1       5.234  69.007 101.785  0.00  0.00    +0.000 OA
ATOM      5  C10 UNL     1       6.212  70.652 100.438  0.00  0.00    +0.000 A 
ATOM      6  C11 UNL     1       5.877  71.793 101.235  0.00  0.00    +0.000 A 
ATOM      7  C12 UNL     1       6.272  73.068 100.813  0.00  0.00    +0.000 A 
ATOM      8  C13 UNL     1       6.986  73.249  99.627  0.00  0.00    +0.000 A 
ATOM      9  C14 UNL     1       7.317  72.147  98.844  0.00  0.00    +0.000 A 
ATOM     10  C15 UNL     1       6.940  70.861  99.236  0.00  0.00    +0.000 A 
ATOM     11  O2  UNL     1       7.278  69.840  98.456  0.00  0.00    +0.000 OA
ENDROOT
BRANCH   1  17
ATOM     12  C1  UNL     1       8.391  66.545  98.071  0.00  0.00    +0.000 A 
ATOM     13  C2  UNL     1       8.774  65.586  97.128  0.00  0.00    +0.000 A 
ATOM     14  C3  UNL     1       8.204  65.582  95.851  0.00  0.00    +0.000 A 
ATOM     15  C4  UNL     1       7.249  66.543  95.520  0.00  0.00    +0.000 A 
ATOM     16  C5  UNL     1       6.861  67.504  96.457  0.00  0.00    +0.000 A 
ATOM     17  C6  UNL     1       7.423  67.524  97.751  0.00  0.00    +0.000 A 
BRANCH  14  18
ATOM     18  O5  UNL     1       8.581  64.632  94.905  0.00  0.00    +0.000 OA
ATOM     19  H10 UNL     1       9.373  64.018  95.058  0.00  0.00    +0.000 HD
ENDBRANCH  14  18
ENDBRANCH   1  17
BRANCH   8  20
ATOM     20  O3  UNL     1       7.373  74.524  99.218  0.00  0.00    +0.000 OA
ATOM     21  H8  UNL     1       7.051  74.921  98.343  0.00  0.00    +0.000 HD
ENDBRANCH   8  20
BRANCH   6  22
ATOM     22  O4  UNL     1       5.166  71.740 102.439  0.00  0.00    +0.000 OA
ATOM     23  H9  UNL     1       5.462  72.116 103.324  0.00  0.00    +0.000 HD
ENDBRANCH   6  22
TORSDOF 4
ENDMDL
MODEL 3
REMARK VINA RESULT:      -3.7      1.440      3.051
REMARK  Name = .\Apigenin.pdb
REMARK  4 active torsions:
REMARK  status: ('A' for Active; 'I' for Inactive)
REMARK    1  A    between atoms: C3_3  and  O5_20
REMARK    2  A    between atoms: C6_6  and  C7_7
REMARK    3  A    between atoms: C11_12  and  O4_19
REMARK    4  A    between atoms: C13_14  and  O3_18
REMARK                            x       y       z     vdW  Elec       q    Type
REMARK                         _______ _______ _______ _____ _____    ______ ____
ROOT
ATOM      1  C7  UNL     1       7.261  69.595  99.578  0.00  0.00    +0.000 A 
ATOM      2  C8  UNL     1       6.988  69.151  98.274  0.00  0.00    +0.000 A 
ATOM      3  C9  UNL     1       7.367  67.866  97.882  0.00  0.00    +0.000 A 
ATOM      4  O1  UNL     1       7.105  67.509  96.706  0.00  0.00    +0.000 OA
ATOM      5  C10 UNL     1       8.027  67.013  98.799  0.00  0.00    +0.000 A 
ATOM      6  C11 UNL     1       8.464  65.679  98.517  0.00  0.00    +0.000 A 
ATOM      7  C12 UNL     1       9.107  64.939  99.517  0.00  0.00    +0.000 A 
ATOM      8  C13 UNL     1       9.329  65.477 100.787  0.00  0.00    +0.000 A 
ATOM      9  C14 UNL     1       8.908  66.773 101.071  0.00  0.00    +0.000 A 
ATOM     10  C15 UNL     1       8.265  67.539 100.097  0.00  0.00    +0.000 A 
ATOM     11  O2  UNL     1       7.881  68.770 100.416  0.00  0.00    +0.000 OA
ENDROOT
BRANCH   1  17
ATOM     12  C1  UNL     1       7.193  72.141  99.369  0.00  0.00    +0.000 A 
ATOM     13  C2  UNL     1       6.821  73.390  99.876  0.00  0.00    +0.000 A 
ATOM     14  C3  UNL     1       6.139  73.484 101.093  0.00  0.00    +0.000 A 
ATOM     15  C4  UNL     1       5.830  72.322 101.802  0.00  0.00    +0.000 A 
ATOM     16  C5  UNL     1       6.198  71.071 101.301  0.00  0.00    +0.000 A 
ATOM     17  C6  UNL     1       6.887  70.955 100.075  0.00  0.00    +0.000 A 
BRANCH  14  18
ATOM     18  O5  UNL     1       5.765  74.724 101.606  0.00  0.00    +0.000 OA
ATOM     19  H10 UNL     1       5.097  75.316 101.127  0.00  0.00    +0.000 HD
ENDBRANCH  14  18
ENDBRANCH   1  17
BRANCH   8  20
ATOM     20  O3  UNL     1       9.969  64.730 101.773  0.00  0.00    +0.000 OA
ATOM     21  H8  UNL     1      10.548  63.931 101.542  0.00  0.00    +0.000 HD
ENDBRANCH   8  20
BRANCH   6  22
ATOM     22  O4  UNL     1       8.299  65.032  97.288  0.00  0.00    +0.000 OA
ATOM     23  H9  UNL     1       9.003  64.521  96.782  0.00  0.00    +0.000 HD
ENDBRANCH   6  22
TORSDOF 4
ENDMDL
MODEL 4
REMARK VINA RESULT:      -3.5      2.655      2.987
REMARK  Name = .\Apigenin.pdb
REMARK  4 active torsions:
REMARK  status: ('A' for Active; 'I' for Inactive)
REMARK    1  A    between atoms: C3_3  and  O5_20
REMARK    2  A    between atoms: C6_6  and  C7_7
REMARK    3  A    between atoms: C11_12  and  O4_19
REMARK    4  A    between atoms: C13_14  and  O3_18
REMARK                            x       y       z     vdW  Elec       q    Type
REMARK                         _______ _______ _______ _____ _____    ______ ____
ROOT
ATOM      1  C7  UNL     1       7.273  68.822 100.508  0.00  0.00    +0.000 A 
ATOM      2  C8  UNL     1       6.099  68.335 101.105  0.00  0.00    +0.000 A 
ATOM      3  C9  UNL     1       5.510  67.164 100.626  0.00  0.00    +0.000 A 
ATOM      4  O1  UNL     1       4.459  66.762 101.188  0.00  0.00    +0.000 OA
ATOM      5  C10 UNL     1       6.095  66.470  99.540  0.00  0.00    +0.000 A 
ATOM      6  C11 UNL     1       5.586  65.263  98.961  0.00  0.00    +0.000 A 
ATOM      7  C12 UNL     1       6.264  64.676  97.886  0.00  0.00    +0.000 A 
ATOM      8  C13 UNL     1       7.428  65.244  97.366  0.00  0.00    +0.000 A 
ATOM      9  C14 UNL     1       7.931  66.417  97.921  0.00  0.00    +0.000 A 
ATOM     10  C15 UNL     1       7.280  67.030  98.994  0.00  0.00    +0.000 A 
ATOM     11  O2  UNL     1       7.799  68.148  99.490  0.00  0.00    +0.000 OA
ENDROOT
BRANCH   1  17
ATOM     12  C1  UNL     1       9.071  70.053 101.843  0.00  0.00    +0.000 A 
ATOM     13  C2  UNL     1       9.684  71.246 102.239  0.00  0.00    +0.000 A 
ATOM     14  C3  UNL     1       9.210  72.475 101.767  0.00  0.00    +0.000 A 
ATOM     15  C4  UNL     1       8.119  72.505 100.898  0.00  0.00    +0.000 A 
ATOM     16  C5  UNL     1       7.502  71.317 100.499  0.00  0.00    +0.000 A 
ATOM     17  C6  UNL     1       7.966  70.068 100.963  0.00  0.00    +0.000 A 
BRANCH  14  18
ATOM     18  O5  UNL     1       9.814  73.668 102.156  0.00  0.00    +0.000 OA
ATOM     19  H10 UNL     1      10.638  74.023 101.685  0.00  0.00    +0.000 HD
ENDBRANCH  14  18
ENDBRANCH   1  17
BRANCH   8  20
ATOM     20  O3  UNL     1       8.093  64.650  96.296  0.00  0.00    +0.000 OA
ATOM     21  H8  UNL     1       8.564  63.758  96.393  0.00  0.00    +0.000 HD
ENDBRANCH   8  20
BRANCH   6  22
ATOM     22  O4  UNL     1       4.432  64.600  99.393  0.00  0.00    +0.000 OA
ATOM     23  H9  UNL     1       3.625  64.379  98.834  0.00  0.00    +0.000 HD
ENDBRANCH   6  22
TORSDOF 4
ENDMDL
MODEL 5
REMARK VINA RESULT:      -2.2      2.752      3.411
REMARK  Name = .\Apigenin.pdb
REMARK  4 active torsions:
REMARK  status: ('A' for Active; 'I' for Inactive)
REMARK    1  A    between atoms: C3_3  and  O5_20
REMARK    2  A    between atoms: C6_6  and  C7_7
REMARK    3  A    between atoms: C11_12  and  O4_19
REMARK    4  A    between atoms: C13_14  and  O3_18
REMARK                            x       y       z     vdW  Elec       q    Type
REMARK                         _______ _______ _______ _____ _____    ______ ____
ROOT
ATOM      1  C7  UNL     1       7.451  69.532  99.920  0.00  0.00    +0.000 A 
ATOM      2  C8  UNL     1       7.613  69.233  98.558  0.00  0.00    +0.000 A 
ATOM      3  C9  UNL     1       7.079  68.053  98.036  0.00  0.00    +0.000 A 
ATOM      4  O1  UNL     1       7.247  67.823  96.811  0.00  0.00    +0.000 OA
ATOM      5  C10 UNL     1       6.377  67.160  98.881  0.00  0.00    +0.000 A 
ATOM      6  C11 UNL     1       5.786  65.924  98.465  0.00  0.00    +0.000 A 
ATOM      7  C12 UNL     1       5.117  65.130  99.405  0.00  0.00    +0.000 A 
ATOM      8  C13 UNL     1       5.013  65.522 100.742  0.00  0.00    +0.000 A 
ATOM      9  C14 UNL     1       5.584  66.722 101.155  0.00  0.00    +0.000 A 
ATOM     10  C15 UNL     1       6.259  67.537 100.245  0.00  0.00    +0.000 A 
ATOM     11  O2  UNL     1       6.787  68.673 100.688  0.00  0.00    +0.000 OA
ENDROOT
BRANCH   1  17
ATOM     12  C1  UNL     1       7.612  72.072 100.145  0.00  0.00    +0.000 A 
ATOM     13  C2  UNL     1       8.146  73.203 100.771  0.00  0.00    +0.000 A 
ATOM     14  C3  UNL     1       9.068  73.064 101.814  0.00  0.00    +0.000 A 
ATOM     15  C4  UNL     1       9.453  71.789 102.228  0.00  0.00    +0.000 A 
ATOM     16  C5  UNL     1       8.923  70.655 101.607  0.00  0.00    +0.000 A 
ATOM     17  C6  UNL     1       7.992  70.774 100.554  0.00  0.00    +0.000 A 
BRANCH  14  18
ATOM     18  O5  UNL     1       9.606  74.185 102.442  0.00  0.00    +0.000 OA
ATOM     19  H10 UNL     1       9.211  74.551 103.301  0.00  0.00    +0.000 HD
ENDBRANCH  14  18
ENDBRANCH   1  17
BRANCH   8  20
ATOM     20  O3  UNL     1       4.345  64.724 101.666  0.00  0.00    +0.000 OA
ATOM     21  H8  UNL     1       3.540  65.064 102.178  0.00  0.00    +0.000 HD
ENDBRANCH   8  20
BRANCH   6  22
ATOM     22  O4  UNL     1       5.823  65.425  97.159  0.00  0.00    +0.000 OA
ATOM     23  H9  UNL     1       5.734  65.960  96.312  0.00  0.00    +0.000 HD
ENDBRANCH   6  22
TORSDOF 4
ENDMDL
