MODEL 1
REMARK VINA RESULT:      -9.1      0.000      0.000
REMARK  Name = .\Apigenin.pdb
REMARK  4 active torsions:
REMARK  status: ('A' for Active; 'I' for Inactive)
REMARK    1  A    between atoms: C3_3  and  O5_20
REMARK    2  A    between atoms: C6_6  and  C7_7
REMARK    3  A    between atoms: C11_12  and  O4_19
REMARK    4  A    between atoms: C13_14  and  O3_18
REMARK                            x       y       z     vdW  Elec       q    Type
REMARK                         _______ _______ _______ _____ _____    ______ ____
ROOT
ATOM      1  C7  UNL     1       2.612  78.792 103.677  0.00  0.00    +0.000 A 
ATOM      2  C8  UNL     1       3.429  77.946 104.443  0.00  0.00    +0.000 A 
ATOM      3  C9  UNL     1       4.160  76.933 103.819  0.00  0.00    +0.000 A 
ATOM      4  O1  UNL     1       4.879  76.197 104.542  0.00  0.00    +0.000 OA
ATOM      5  C10 UNL     1       4.074  76.759 102.417  0.00  0.00    +0.000 A 
ATOM      6  C11 UNL     1       4.772  75.760 101.665  0.00  0.00    +0.000 A 
ATOM      7  C12 UNL     1       4.598  75.697 100.277  0.00  0.00    +0.000 A 
ATOM      8  C13 UNL     1       3.758  76.591  99.610  0.00  0.00    +0.000 A 
ATOM      9  C14 UNL     1       3.075  77.566 100.332  0.00  0.00    +0.000 A 
ATOM     10  C15 UNL     1       3.224  77.657 101.717  0.00  0.00    +0.000 A 
ATOM     11  O2  UNL     1       2.552  78.604 102.362  0.00  0.00    +0.000 OA
ENDROOT
BRANCH   1  17
ATOM     12  C1  UNL     1       1.943  80.326 105.609  0.00  0.00    +0.000 A 
ATOM     13  C2  UNL     1       1.159  81.367 106.115  0.00  0.00    +0.000 A 
ATOM     14  C3  UNL     1       0.218  82.004 105.300  0.00  0.00    +0.000 A 
ATOM     15  C4  UNL     1       0.064  81.594 103.975  0.00  0.00    +0.000 A 
ATOM     16  C5  UNL     1       0.844  80.555 103.463  0.00  0.00    +0.000 A 
ATOM     17  C6  UNL     1       1.799  79.900 104.269  0.00  0.00    +0.000 A 
BRANCH  14  18
ATOM     18  O5  UNL     1      -0.568  83.042 105.796  0.00  0.00    +0.000 OA
ATOM     19  H10 UNL     1      -0.738  83.149 106.790  0.00  0.00    +0.000 HD
ENDBRANCH  14  18
ENDBRANCH   1  17
BRANCH   8  20
ATOM     20  O3  UNL     1       3.594  76.517  98.229  0.00  0.00    +0.000 OA
ATOM     21  H8  UNL     1       4.293  76.089  97.634  0.00  0.00    +0.000 HD
ENDBRANCH   8  20
BRANCH   6  22
ATOM     22  O4  UNL     1       5.639  74.811 102.217  0.00  0.00    +0.000 OA
ATOM     23  H9  UNL     1       5.839  74.682 103.194  0.00  0.00    +0.000 HD
ENDBRANCH   6  22
TORSDOF 4
ENDMDL
MODEL 2
REMARK VINA RESULT:      -9.1      0.101      1.086
REMARK  Name = .\Apigenin.pdb
REMARK  4 active torsions:
REMARK  status: ('A' for Active; 'I' for Inactive)
REMARK    1  A    between atoms: C3_3  and  O5_20
REMARK    2  A    between atoms: C6_6  and  C7_7
REMARK    3  A    between atoms: C11_12  and  O4_19
REMARK    4  A    between atoms: C13_14  and  O3_18
REMARK                            x       y       z     vdW  Elec       q    Type
REMARK                         _______ _______ _______ _____ _____    ______ ____
ROOT
ATOM      1  C7  UNL     1       2.536  78.850 103.643  0.00  0.00    +0.000 A 
ATOM      2  C8  UNL     1       3.346  78.031 104.445  0.00  0.00    +0.000 A 
ATOM      3  C9  UNL     1       4.098  77.011 103.861  0.00  0.00    +0.000 A 
ATOM      4  O1  UNL     1       4.810  76.300 104.614  0.00  0.00    +0.000 OA
ATOM      5  C10 UNL     1       4.042  76.802 102.461  0.00  0.00    +0.000 A 
ATOM      6  C11 UNL     1       4.763  75.792 101.748  0.00  0.00    +0.000 A 
ATOM      7  C12 UNL     1       4.618  75.694 100.358  0.00  0.00    +0.000 A 
ATOM      8  C13 UNL     1       3.782  76.563  99.654  0.00  0.00    +0.000 A 
ATOM      9  C14 UNL     1       3.076  77.548 100.338  0.00  0.00    +0.000 A 
ATOM     10  C15 UNL     1       3.198  77.674 101.723  0.00  0.00    +0.000 A 
ATOM     11  O2  UNL     1       2.504  78.630 102.332  0.00  0.00    +0.000 OA
ENDROOT
BRANCH   1  17
ATOM     12  C1  UNL     1       0.760  80.674 103.412  0.00  0.00    +0.000 A 
ATOM     13  C2  UNL     1       0.004  81.709 103.972  0.00  0.00    +0.000 A 
ATOM     14  C3  UNL     1       0.170  82.057 105.316  0.00  0.00    +0.000 A 
ATOM     15  C4  UNL     1       1.096  81.367 106.098  0.00  0.00    +0.000 A 
ATOM     16  C5  UNL     1       1.855  80.332 105.545  0.00  0.00    +0.000 A 
ATOM     17  C6  UNL     1       1.701  79.965 104.191  0.00  0.00    +0.000 A 
BRANCH  14  18
ATOM     18  O5  UNL     1      -0.578  83.087 105.882  0.00  0.00    +0.000 OA
ATOM     19  H10 UNL     1      -0.216  83.647 106.645  0.00  0.00    +0.000 HD
ENDBRANCH  14  18
ENDBRANCH   1  17
BRANCH   8  20
ATOM     20  O3  UNL     1       3.647  76.454  98.272  0.00  0.00    +0.000 OA
ATOM     21  H8  UNL     1       2.822  76.045  97.850  0.00  0.00    +0.000 HD
ENDBRANCH   8  20
BRANCH   6  22
ATOM     22  O4  UNL     1       5.628  74.866 102.340  0.00  0.00    +0.000 OA
ATOM     23  H9  UNL     1       6.095  74.104 101.877  0.00  0.00    +0.000 HD
ENDBRANCH   6  22
TORSDOF 4
ENDMDL
MODEL 3
REMARK VINA RESULT:      -8.5      1.690      6.687
REMARK  Name = .\Apigenin.pdb
REMARK  4 active torsions:
REMARK  status: ('A' for Active; 'I' for Inactive)
REMARK    1  A    between atoms: C3_3  and  O5_20
REMARK    2  A    between atoms: C6_6  and  C7_7
REMARK    3  A    between atoms: C11_12  and  O4_19
REMARK    4  A    between atoms: C13_14  and  O3_18
REMARK                            x       y       z     vdW  Elec       q    Type
REMARK                         _______ _______ _______ _____ _____    ______ ____
ROOT
ATOM      1  C7  UNL     1       2.681  77.774 102.370  0.00  0.00    +0.000 A 
ATOM      2  C8  UNL     1       2.681  77.077 103.589  0.00  0.00    +0.000 A 
ATOM      3  C9  UNL     1       2.046  77.626 104.704  0.00  0.00    +0.000 A 
ATOM      4  O1  UNL     1       2.070  76.970 105.777  0.00  0.00    +0.000 OA
ATOM      5  C10 UNL     1       1.404  78.884 104.605  0.00  0.00    +0.000 A 
ATOM      6  C11 UNL     1       0.721  79.548 105.674  0.00  0.00    +0.000 A 
ATOM      7  C12 UNL     1       0.126  80.794 105.441  0.00  0.00    +0.000 A 
ATOM      8  C13 UNL     1       0.184  81.402 104.185  0.00  0.00    +0.000 A 
ATOM      9  C14 UNL     1       0.845  80.764 103.140  0.00  0.00    +0.000 A 
ATOM     10  C15 UNL     1       1.450  79.522 103.337  0.00  0.00    +0.000 A 
ATOM     11  O2  UNL     1       2.069  78.952 102.308  0.00  0.00    +0.000 OA
ENDROOT
BRANCH   1  17
ATOM     12  C1  UNL     1       2.755  77.367  99.849  0.00  0.00    +0.000 A 
ATOM     13  C2  UNL     1       3.410  76.864  98.720  0.00  0.00    +0.000 A 
ATOM     14  C3  UNL     1       4.655  76.239  98.845  0.00  0.00    +0.000 A 
ATOM     15  C4  UNL     1       5.242  76.118 100.104  0.00  0.00    +0.000 A 
ATOM     16  C5  UNL     1       4.594  76.619 101.236  0.00  0.00    +0.000 A 
ATOM     17  C6  UNL     1       3.338  77.253 101.131  0.00  0.00    +0.000 A 
BRANCH  14  18
ATOM     18  O5  UNL     1       5.314  75.734  97.726  0.00  0.00    +0.000 OA
ATOM     19  H10 UNL     1       5.799  74.844  97.754  0.00  0.00    +0.000 HD
ENDBRANCH  14  18
ENDBRANCH   1  17
BRANCH   8  20
ATOM     20  O3  UNL     1      -0.413  82.642 103.968  0.00  0.00    +0.000 OA
ATOM     21  H8  UNL     1      -1.391  82.804 104.174  0.00  0.00    +0.000 HD
ENDBRANCH   8  20
BRANCH   6  22
ATOM     22  O4  UNL     1       0.595  79.043 106.972  0.00  0.00    +0.000 OA
ATOM     23  H9  UNL     1       0.489  78.076 107.230  0.00  0.00    +0.000 HD
ENDBRANCH   6  22
TORSDOF 4
ENDMDL
MODEL 4
REMARK VINA RESULT:      -8.4      4.277      9.558
REMARK  Name = .\Apigenin.pdb
REMARK  4 active torsions:
REMARK  status: ('A' for Active; 'I' for Inactive)
REMARK    1  A    between atoms: C3_3  and  O5_20
REMARK    2  A    between atoms: C6_6  and  C7_7
REMARK    3  A    between atoms: C11_12  and  O4_19
REMARK    4  A    between atoms: C13_14  and  O3_18
REMARK                            x       y       z     vdW  Elec       q    Type
REMARK                         _______ _______ _______ _____ _____    ______ ____
ROOT
ATOM      1  C7  UNL     1       0.687  81.883 107.880  0.00  0.00    +0.000 A 
ATOM      2  C8  UNL     1      -0.183  81.195 108.740  0.00  0.00    +0.000 A 
ATOM      3  C9  UNL     1      -0.370  81.646 110.048  0.00  0.00    +0.000 A 
ATOM      4  O1  UNL     1      -1.157  81.001 110.786  0.00  0.00    +0.000 OA
ATOM      5  C10 UNL     1       0.320  82.795 110.505  0.00  0.00    +0.000 A 
ATOM      6  C11 UNL     1       0.213  83.353 111.819  0.00  0.00    +0.000 A 
ATOM      7  C12 UNL     1       0.952  84.497 112.144  0.00  0.00    +0.000 A 
ATOM      8  C13 UNL     1       1.792  85.106 111.209  0.00  0.00    +0.000 A 
ATOM      9  C14 UNL     1       1.903  84.572 109.929  0.00  0.00    +0.000 A 
ATOM     10  C15 UNL     1       1.181  83.431 109.572  0.00  0.00    +0.000 A 
ATOM     11  O2  UNL     1       1.320  82.959 108.338  0.00  0.00    +0.000 OA
ENDROOT
BRANCH   1  17
ATOM     12  C1  UNL     1       2.122  80.806 106.060  0.00  0.00    +0.000 A 
ATOM     13  C2  UNL     1       2.311  80.435 104.725  0.00  0.00    +0.000 A 
ATOM     14  C3  UNL     1       1.328  80.712 103.769  0.00  0.00    +0.000 A 
ATOM     15  C4  UNL     1       0.156  81.363 104.154  0.00  0.00    +0.000 A 
ATOM     16  C5  UNL     1      -0.039  81.736 105.486  0.00  0.00    +0.000 A 
ATOM     17  C6  UNL     1       0.940  81.464 106.466  0.00  0.00    +0.000 A 
BRANCH  14  18
ATOM     18  O5  UNL     1       1.508  80.347 102.437  0.00  0.00    +0.000 OA
ATOM     19  H10 UNL     1       1.581  79.375 102.159  0.00  0.00    +0.000 HD
ENDBRANCH  14  18
ENDBRANCH   1  17
BRANCH   8  20
ATOM     20  O3  UNL     1       2.522  86.244 111.545  0.00  0.00    +0.000 OA
ATOM     21  H8  UNL     1       3.263  86.595 110.950  0.00  0.00    +0.000 HD
ENDBRANCH   8  20
BRANCH   6  22
ATOM     22  O4  UNL     1      -0.592  82.835 112.840  0.00  0.00    +0.000 OA
ATOM     23  H9  UNL     1      -0.794  83.274 113.722  0.00  0.00    +0.000 HD
ENDBRANCH   6  22
TORSDOF 4
ENDMDL
MODEL 5
REMARK VINA RESULT:      -8.2      3.385      6.184
REMARK  Name = .\Apigenin.pdb
REMARK  4 active torsions:
REMARK  status: ('A' for Active; 'I' for Inactive)
REMARK    1  A    between atoms: C3_3  and  O5_20
REMARK    2  A    between atoms: C6_6  and  C7_7
REMARK    3  A    between atoms: C11_12  and  O4_19
REMARK    4  A    between atoms: C13_14  and  O3_18
REMARK                            x       y       z     vdW  Elec       q    Type
REMARK                         _______ _______ _______ _____ _____    ______ ____
ROOT
ATOM      1  C7  UNL     1       0.357  81.419 107.582  0.00  0.00    +0.000 A 
ATOM      2  C8  UNL     1      -0.114  82.151 106.481  0.00  0.00    +0.000 A 
ATOM      3  C9  UNL     1       0.012  81.629 105.192  0.00  0.00    +0.000 A 
ATOM      4  O1  UNL     1      -0.422  82.318 104.234  0.00  0.00    +0.000 OA
ATOM      5  C10 UNL     1       0.616  80.364 104.997  0.00  0.00    +0.000 A 
ATOM      6  C11 UNL     1       0.802  79.725 103.730  0.00  0.00    +0.000 A 
ATOM      7  C12 UNL     1       1.416  78.467 103.676  0.00  0.00    +0.000 A 
ATOM      8  C13 UNL     1       1.849  77.823 104.837  0.00  0.00    +0.000 A 
ATOM      9  C14 UNL     1       1.673  78.435 106.074  0.00  0.00    +0.000 A 
ATOM     10  C15 UNL     1       1.065  79.689 106.164  0.00  0.00    +0.000 A 
ATOM     11  O2  UNL     1       0.919  80.233 107.367  0.00  0.00    +0.000 OA
ENDROOT
BRANCH   1  17
ATOM     12  C1  UNL     1       0.628  83.216 109.379  0.00  0.00    +0.000 A 
ATOM     13  C2  UNL     1       0.517  83.625 110.712  0.00  0.00    +0.000 A 
ATOM     14  C3  UNL     1       0.037  82.741 111.684  0.00  0.00    +0.000 A 
ATOM     15  C4  UNL     1      -0.331  81.446 111.318  0.00  0.00    +0.000 A 
ATOM     16  C5  UNL     1      -0.223  81.032 109.988  0.00  0.00    +0.000 A 
ATOM     17  C6  UNL     1       0.258  81.908 108.992  0.00  0.00    +0.000 A 
BRANCH  14  18
ATOM     18  O5  UNL     1      -0.076  83.140 113.014  0.00  0.00    +0.000 OA
ATOM     19  H10 UNL     1      -0.791  83.793 113.312  0.00  0.00    +0.000 HD
ENDBRANCH  14  18
ENDBRANCH   1  17
BRANCH   8  20
ATOM     20  O3  UNL     1       2.458  76.572 104.769  0.00  0.00    +0.000 OA
ATOM     21  H8  UNL     1       1.918  75.715 104.807  0.00  0.00    +0.000 HD
ENDBRANCH   8  20
BRANCH   6  22
ATOM     22  O4  UNL     1       0.412  80.268 102.501  0.00  0.00    +0.000 OA
ATOM     23  H9  UNL     1      -0.108  79.798 101.778  0.00  0.00    +0.000 HD
ENDBRANCH   6  22
TORSDOF 4
ENDMDL
MODEL 6
REMARK VINA RESULT:      -8.1      1.475      2.951
REMARK  Name = .\Apigenin.pdb
REMARK  4 active torsions:
REMARK  status: ('A' for Active; 'I' for Inactive)
REMARK    1  A    between atoms: C3_3  and  O5_20
REMARK    2  A    between atoms: C6_6  and  C7_7
REMARK    3  A    between atoms: C11_12  and  O4_19
REMARK    4  A    between atoms: C13_14  and  O3_18
REMARK                            x       y       z     vdW  Elec       q    Type
REMARK                         _______ _______ _______ _____ _____    ______ ____
ROOT
ATOM      1  C7  UNL     1       2.078  78.790 103.945  0.00  0.00    +0.000 A 
ATOM      2  C8  UNL     1       1.875  78.544 102.578  0.00  0.00    +0.000 A 
ATOM      3  C9  UNL     1       2.540  77.487 101.954  0.00  0.00    +0.000 A 
ATOM      4  O1  UNL     1       2.330  77.301 100.729  0.00  0.00    +0.000 OA
ATOM      5  C10 UNL     1       3.420  76.666 102.701  0.00  0.00    +0.000 A 
ATOM      6  C11 UNL     1       4.157  75.557 102.176  0.00  0.00    +0.000 A 
ATOM      7  C12 UNL     1       4.996  74.825 103.025  0.00  0.00    +0.000 A 
ATOM      8  C13 UNL     1       5.127  75.155 104.376  0.00  0.00    +0.000 A 
ATOM      9  C14 UNL     1       4.415  76.232 104.895  0.00  0.00    +0.000 A 
ATOM     10  C15 UNL     1       3.570  76.984 104.077  0.00  0.00    +0.000 A 
ATOM     11  O2  UNL     1       2.910  78.002 104.619  0.00  0.00    +0.000 OA
ENDROOT
BRANCH   1  17
ATOM     12  C1  UNL     1       1.528  80.079 106.082  0.00  0.00    +0.000 A 
ATOM     13  C2  UNL     1       0.876  81.134 106.728  0.00  0.00    +0.000 A 
ATOM     14  C3  UNL     1       0.087  82.030 105.999  0.00  0.00    +0.000 A 
ATOM     15  C4  UNL     1      -0.047  81.866 104.620  0.00  0.00    +0.000 A 
ATOM     16  C5  UNL     1       0.602  80.814 103.968  0.00  0.00    +0.000 A 
ATOM     17  C6  UNL     1       1.403  79.901 104.686  0.00  0.00    +0.000 A 
BRANCH  14  18
ATOM     18  O5  UNL     1      -0.567  83.083 106.635  0.00  0.00    +0.000 OA
ATOM     19  H10 UNL     1      -0.089  83.950 106.849  0.00  0.00    +0.000 HD
ENDBRANCH  14  18
ENDBRANCH   1  17
BRANCH   8  20
ATOM     20  O3  UNL     1       5.965  74.418 105.209  0.00  0.00    +0.000 OA
ATOM     21  H8  UNL     1       6.907  74.169 104.930  0.00  0.00    +0.000 HD
ENDBRANCH   8  20
BRANCH   6  22
ATOM     22  O4  UNL     1       4.110  75.129 100.845  0.00  0.00    +0.000 OA
ATOM     23  H9  UNL     1       4.669  75.478 100.085  0.00  0.00    +0.000 HD
ENDBRANCH   6  22
TORSDOF 4
ENDMDL
MODEL 7
REMARK VINA RESULT:      -7.8      1.804      7.374
REMARK  Name = .\Apigenin.pdb
REMARK  4 active torsions:
REMARK  status: ('A' for Active; 'I' for Inactive)
REMARK    1  A    between atoms: C3_3  and  O5_20
REMARK    2  A    between atoms: C6_6  and  C7_7
REMARK    3  A    between atoms: C11_12  and  O4_19
REMARK    4  A    between atoms: C13_14  and  O3_18
REMARK                            x       y       z     vdW  Elec       q    Type
REMARK                         _______ _______ _______ _____ _____    ______ ____
ROOT
ATOM      1  C7  UNL     1       2.356  78.666 104.024  0.00  0.00    +0.000 A 
ATOM      2  C8  UNL     1       1.777  79.582 103.132  0.00  0.00    +0.000 A 
ATOM      3  C9  UNL     1       0.991  80.628 103.620  0.00  0.00    +0.000 A 
ATOM      4  O1  UNL     1       0.491  81.425 102.787  0.00  0.00    +0.000 OA
ATOM      5  C10 UNL     1       0.777  80.761 105.013  0.00  0.00    +0.000 A 
ATOM      6  C11 UNL     1      -0.006  81.786 105.633  0.00  0.00    +0.000 A 
ATOM      7  C12 UNL     1      -0.137  81.805 107.027  0.00  0.00    +0.000 A 
ATOM      8  C13 UNL     1       0.483  80.842 107.826  0.00  0.00    +0.000 A 
ATOM      9  C14 UNL     1       1.247  79.841 107.233  0.00  0.00    +0.000 A 
ATOM     10  C15 UNL     1       1.398  79.793 105.846  0.00  0.00    +0.000 A 
ATOM     11  O2  UNL     1       2.138  78.818 105.327  0.00  0.00    +0.000 OA
ENDROOT
BRANCH   1  17
ATOM     12  C1  UNL     1       3.686  76.530 104.469  0.00  0.00    +0.000 A 
ATOM     13  C2  UNL     1       4.483  75.478 104.005  0.00  0.00    +0.000 A 
ATOM     14  C3  UNL     1       4.823  75.393 102.651  0.00  0.00    +0.000 A 
ATOM     15  C4  UNL     1       4.362  76.365 101.762  0.00  0.00    +0.000 A 
ATOM     16  C5  UNL     1       3.565  77.418 102.219  0.00  0.00    +0.000 A 
ATOM     17  C6  UNL     1       3.211  77.521 103.581  0.00  0.00    +0.000 A 
BRANCH  14  18
ATOM     18  O5  UNL     1       5.617  74.350 102.180  0.00  0.00    +0.000 OA
ATOM     19  H10 UNL     1       6.091  73.717 102.814  0.00  0.00    +0.000 HD
ENDBRANCH  14  18
ENDBRANCH   1  17
BRANCH   8  20
ATOM     20  O3  UNL     1       0.345  80.872 109.211  0.00  0.00    +0.000 OA
ATOM     21  H8  UNL     1      -0.371  81.430 109.662  0.00  0.00    +0.000 HD
ENDBRANCH   8  20
BRANCH   6  22
ATOM     22  O4  UNL     1      -0.674  82.804 104.942  0.00  0.00    +0.000 OA
ATOM     23  H9  UNL     1      -0.692  82.937 103.945  0.00  0.00    +0.000 HD
ENDBRANCH   6  22
TORSDOF 4
ENDMDL
MODEL 8
REMARK VINA RESULT:      -7.6      1.406      2.038
REMARK  Name = .\Apigenin.pdb
REMARK  4 active torsions:
REMARK  status: ('A' for Active; 'I' for Inactive)
REMARK    1  A    between atoms: C3_3  and  O5_20
REMARK    2  A    between atoms: C6_6  and  C7_7
REMARK    3  A    between atoms: C11_12  and  O4_19
REMARK    4  A    between atoms: C13_14  and  O3_18
REMARK                            x       y       z     vdW  Elec       q    Type
REMARK                         _______ _______ _______ _____ _____    ______ ____
ROOT
ATOM      1  C7  UNL     1       3.219  77.262 103.220  0.00  0.00    +0.000 A 
ATOM      2  C8  UNL     1       3.903  76.274 103.945  0.00  0.00    +0.000 A 
ATOM      3  C9  UNL     1       4.744  75.380 103.280  0.00  0.00    +0.000 A 
ATOM      4  O1  UNL     1       5.337  74.510 103.967  0.00  0.00    +0.000 OA
ATOM      5  C10 UNL     1       4.905  75.471 101.876  0.00  0.00    +0.000 A 
ATOM      6  C11 UNL     1       5.736  74.615 101.084  0.00  0.00    +0.000 A 
ATOM      7  C12 UNL     1       5.807  74.813  99.700  0.00  0.00    +0.000 A 
ATOM      8  C13 UNL     1       5.083  75.831  99.076  0.00  0.00    +0.000 A 
ATOM      9  C14 UNL     1       4.273  76.668  99.837  0.00  0.00    +0.000 A 
ATOM     10  C15 UNL     1       4.178  76.499 101.219  0.00  0.00    +0.000 A 
ATOM     11  O2  UNL     1       3.391  77.323 101.903  0.00  0.00    +0.000 OA
ENDROOT
BRANCH   1  17
ATOM     12  C1  UNL     1       1.710  79.324 103.143  0.00  0.00    +0.000 A 
ATOM     13  C2  UNL     1       0.858  80.228 103.786  0.00  0.00    +0.000 A 
ATOM     14  C3  UNL     1       0.580  80.089 105.149  0.00  0.00    +0.000 A 
ATOM     15  C4  UNL     1       1.156  79.042 105.868  0.00  0.00    +0.000 A 
ATOM     16  C5  UNL     1       2.008  78.135 105.232  0.00  0.00    +0.000 A 
ATOM     17  C6  UNL     1       2.301  78.257 103.858  0.00  0.00    +0.000 A 
BRANCH  14  18
ATOM     18  O5  UNL     1      -0.267  80.986 105.798  0.00  0.00    +0.000 OA
ATOM     19  H10 UNL     1      -0.143  81.217 106.777  0.00  0.00    +0.000 HD
ENDBRANCH  14  18
ENDBRANCH   1  17
BRANCH   8  20
ATOM     20  O3  UNL     1       5.163  76.018  97.698  0.00  0.00    +0.000 OA
ATOM     21  H8  UNL     1       5.902  76.570  97.278  0.00  0.00    +0.000 HD
ENDBRANCH   8  20
BRANCH   6  22
ATOM     22  O4  UNL     1       6.507  73.564 101.592  0.00  0.00    +0.000 OA
ATOM     23  H9  UNL     1       6.628  72.656 101.175  0.00  0.00    +0.000 HD
ENDBRANCH   6  22
TORSDOF 4
ENDMDL
MODEL 9
REMARK VINA RESULT:      -7.4      1.616      3.428
REMARK  Name = .\Apigenin.pdb
REMARK  4 active torsions:
REMARK  status: ('A' for Active; 'I' for Inactive)
REMARK    1  A    between atoms: C3_3  and  O5_20
REMARK    2  A    between atoms: C6_6  and  C7_7
REMARK    3  A    between atoms: C11_12  and  O4_19
REMARK    4  A    between atoms: C13_14  and  O3_18
REMARK                            x       y       z     vdW  Elec       q    Type
REMARK                         _______ _______ _______ _____ _____    ______ ____
ROOT
ATOM      1  C7  UNL     1       3.373  77.700 102.424  0.00  0.00    +0.000 A 
ATOM      2  C8  UNL     1       3.410  77.704 101.021  0.00  0.00    +0.000 A 
ATOM      3  C9  UNL     1       4.041  76.662 100.338  0.00  0.00    +0.000 A 
ATOM      4  O1  UNL     1       4.052  76.704  99.082  0.00  0.00    +0.000 OA
ATOM      5  C10 UNL     1       4.643  75.605 101.062  0.00  0.00    +0.000 A 
ATOM      6  C11 UNL     1       5.318  74.485 100.479  0.00  0.00    +0.000 A 
ATOM      7  C12 UNL     1       5.872  73.504 101.311  0.00  0.00    +0.000 A 
ATOM      8  C13 UNL     1       5.778  73.597 102.702  0.00  0.00    +0.000 A 
ATOM      9  C14 UNL     1       5.124  74.682 103.279  0.00  0.00    +0.000 A 
ATOM     10  C15 UNL     1       4.561  75.678 102.478  0.00  0.00    +0.000 A 
ATOM     11  O2  UNL     1       3.947  76.694 103.076  0.00  0.00    +0.000 OA
ENDROOT
BRANCH   1  17
ATOM     12  C1  UNL     1       1.450  79.315 102.901  0.00  0.00    +0.000 A 
ATOM     13  C2  UNL     1       0.879  80.322 103.685  0.00  0.00    +0.000 A 
ATOM     14  C3  UNL     1       1.554  80.814 104.807  0.00  0.00    +0.000 A 
ATOM     15  C4  UNL     1       2.805  80.294 105.141  0.00  0.00    +0.000 A 
ATOM     16  C5  UNL     1       3.382  79.288 104.362  0.00  0.00    +0.000 A 
ATOM     17  C6  UNL     1       2.716  78.778 103.228  0.00  0.00    +0.000 A 
BRANCH  14  18
ATOM     18  O5  UNL     1       0.993  81.818 105.593  0.00  0.00    +0.000 OA
ATOM     19  H10 UNL     1       1.244  82.792 105.466  0.00  0.00    +0.000 HD
ENDBRANCH  14  18
ENDBRANCH   1  17
BRANCH   8  20
ATOM     20  O3  UNL     1       6.333  72.615 103.518  0.00  0.00    +0.000 OA
ATOM     21  H8  UNL     1       5.920  71.693 103.597  0.00  0.00    +0.000 HD
ENDBRANCH   8  20
BRANCH   6  22
ATOM     22  O4  UNL     1       5.476  74.280  99.104  0.00  0.00    +0.000 OA
ATOM     23  H9  UNL     1       4.741  74.226  98.419  0.00  0.00    +0.000 HD
ENDBRANCH   6  22
TORSDOF 4
ENDMDL
