MODEL 1
REMARK VINA RESULT:      -5.3      0.000      0.000
REMARK  Name = .\Apigenin.pdb
REMARK  4 active torsions:
REMARK  status: ('A' for Active; 'I' for Inactive)
REMARK    1  A    between atoms: C3_3  and  O5_20
REMARK    2  A    between atoms: C6_6  and  C7_7
REMARK    3  A    between atoms: C11_12  and  O4_19
REMARK    4  A    between atoms: C13_14  and  O3_18
REMARK                            x       y       z     vdW  Elec       q    Type
REMARK                         _______ _______ _______ _____ _____    ______ ____
ROOT
ATOM      1  C7  UNL     1       1.967  93.588 138.921  0.00  0.00    +0.000 A 
ATOM      2  C8  UNL     1       3.126  93.986 139.606  0.00  0.00    +0.000 A 
ATOM      3  C9  UNL     1       3.395  93.473 140.875  0.00  0.00    +0.000 A 
ATOM      4  O1  UNL     1       4.443  93.856 141.454  0.00  0.00    +0.000 OA
ATOM      5  C10 UNL     1       2.499  92.553 141.472  0.00  0.00    +0.000 A 
ATOM      6  C11 UNL     1       2.665  91.959 142.764  0.00  0.00    +0.000 A 
ATOM      7  C12 UNL     1       1.700  91.061 143.237  0.00  0.00    +0.000 A 
ATOM      8  C13 UNL     1       0.580  90.731 142.472  0.00  0.00    +0.000 A 
ATOM      9  C14 UNL     1       0.410  91.303 141.214  0.00  0.00    +0.000 A 
ATOM     10  C15 UNL     1       1.351  92.203 140.712  0.00  0.00    +0.000 A 
ATOM     11  O2  UNL     1       1.145  92.722 139.506  0.00  0.00    +0.000 OA
ENDROOT
BRANCH   1  17
ATOM     12  C1  UNL     1       0.613  93.488 136.756  0.00  0.00    +0.000 A 
ATOM     13  C2  UNL     1       0.315  93.996 135.487  0.00  0.00    +0.000 A 
ATOM     14  C3  UNL     1       0.999  95.111 134.994  0.00  0.00    +0.000 A 
ATOM     15  C4  UNL     1       1.985  95.717 135.774  0.00  0.00    +0.000 A 
ATOM     16  C5  UNL     1       2.288  95.214 137.042  0.00  0.00    +0.000 A 
ATOM     17  C6  UNL     1       1.608  94.091 137.558  0.00  0.00    +0.000 A 
BRANCH  14  18
ATOM     18  O5  UNL     1       0.709  95.624 133.732  0.00  0.00    +0.000 OA
ATOM     19  H10 UNL     1      -0.042  95.245 133.166  0.00  0.00    +0.000 HD
ENDBRANCH  14  18
ENDBRANCH   1  17
BRANCH   8  20
ATOM     20  O3  UNL     1      -0.372  89.836 142.955  0.00  0.00    +0.000 OA
ATOM     21  H8  UNL     1      -0.142  88.867 143.143  0.00  0.00    +0.000 HD
ENDBRANCH   8  20
BRANCH   6  22
ATOM     22  O4  UNL     1       3.741  92.209 143.621  0.00  0.00    +0.000 OA
ATOM     23  H9  UNL     1       4.305  91.519 144.090  0.00  0.00    +0.000 HD
ENDBRANCH   6  22
TORSDOF 4
ENDMDL
MODEL 2
REMARK VINA RESULT:      -5.2      1.136      2.902
REMARK  Name = .\Apigenin.pdb
REMARK  4 active torsions:
REMARK  status: ('A' for Active; 'I' for Inactive)
REMARK    1  A    between atoms: C3_3  and  O5_20
REMARK    2  A    between atoms: C6_6  and  C7_7
REMARK    3  A    between atoms: C11_12  and  O4_19
REMARK    4  A    between atoms: C13_14  and  O3_18
REMARK                            x       y       z     vdW  Elec       q    Type
REMARK                         _______ _______ _______ _____ _____    ______ ____
ROOT
ATOM      1  C7  UNL     1       1.602  93.236 138.892  0.00  0.00    +0.000 A 
ATOM      2  C8  UNL     1       0.676  92.251 139.270  0.00  0.00    +0.000 A 
ATOM      3  C9  UNL     1       0.806  91.610 140.503  0.00  0.00    +0.000 A 
ATOM      4  O1  UNL     1      -0.044  90.733 140.802  0.00  0.00    +0.000 OA
ATOM      5  C10 UNL     1       1.872  91.952 141.369  0.00  0.00    +0.000 A 
ATOM      6  C11 UNL     1       2.112  91.368 142.654  0.00  0.00    +0.000 A 
ATOM      7  C12 UNL     1       3.206  91.799 143.414  0.00  0.00    +0.000 A 
ATOM      8  C13 UNL     1       4.069  92.790 142.942  0.00  0.00    +0.000 A 
ATOM      9  C14 UNL     1       3.845  93.365 141.695  0.00  0.00    +0.000 A 
ATOM     10  C15 UNL     1       2.764  92.958 140.911  0.00  0.00    +0.000 A 
ATOM     11  O2  UNL     1       2.592  93.537 139.727  0.00  0.00    +0.000 OA
ENDROOT
BRANCH   1  17
ATOM     12  C1  UNL     1       2.370  95.062 137.278  0.00  0.00    +0.000 A 
ATOM     13  C2  UNL     1       2.264  95.715 136.045  0.00  0.00    +0.000 A 
ATOM     14  C3  UNL     1       1.322  95.294 135.101  0.00  0.00    +0.000 A 
ATOM     15  C4  UNL     1       0.486  94.217 135.395  0.00  0.00    +0.000 A 
ATOM     16  C5  UNL     1       0.586  93.560 136.624  0.00  0.00    +0.000 A 
ATOM     17  C6  UNL     1       1.531  93.969 137.590  0.00  0.00    +0.000 A 
BRANCH  14  18
ATOM     18  O5  UNL     1       1.209  95.939 133.872  0.00  0.00    +0.000 OA
ATOM     19  H10 UNL     1       1.989  96.440 133.463  0.00  0.00    +0.000 HD
ENDBRANCH  14  18
ENDBRANCH   1  17
BRANCH   8  20
ATOM     20  O3  UNL     1       5.154  93.210 143.708  0.00  0.00    +0.000 OA
ATOM     21  H8  UNL     1       5.283  92.897 144.663  0.00  0.00    +0.000 HD
ENDBRANCH   8  20
BRANCH   6  22
ATOM     22  O4  UNL     1       1.320  90.370 143.233  0.00  0.00    +0.000 OA
ATOM     23  H9  UNL     1       0.350  90.187 143.037  0.00  0.00    +0.000 HD
ENDBRANCH   6  22
TORSDOF 4
ENDMDL
MODEL 3
REMARK VINA RESULT:      -4.8      1.757      6.843
REMARK  Name = .\Apigenin.pdb
REMARK  4 active torsions:
REMARK  status: ('A' for Active; 'I' for Inactive)
REMARK    1  A    between atoms: C3_3  and  O5_20
REMARK    2  A    between atoms: C6_6  and  C7_7
REMARK    3  A    between atoms: C11_12  and  O4_19
REMARK    4  A    between atoms: C13_14  and  O3_18
REMARK                            x       y       z     vdW  Elec       q    Type
REMARK                         _______ _______ _______ _____ _____    ______ ____
ROOT
ATOM      1  C7  UNL     1       2.125  94.040 138.743  0.00  0.00    +0.000 A 
ATOM      2  C8  UNL     1       3.141  94.990 138.935  0.00  0.00    +0.000 A 
ATOM      3  C9  UNL     1       3.407  95.934 137.943  0.00  0.00    +0.000 A 
ATOM      4  O1  UNL     1       4.325  96.766 138.155  0.00  0.00    +0.000 OA
ATOM      5  C10 UNL     1       2.654  95.932 136.744  0.00  0.00    +0.000 A 
ATOM      6  C11 UNL     1       2.832  96.846 135.656  0.00  0.00    +0.000 A 
ATOM      7  C12 UNL     1       2.017  96.735 134.523  0.00  0.00    +0.000 A 
ATOM      8  C13 UNL     1       1.031  95.750 134.433  0.00  0.00    +0.000 A 
ATOM      9  C14 UNL     1       0.850  94.856 135.485  0.00  0.00    +0.000 A 
ATOM     10  C15 UNL     1       1.646  94.939 136.630  0.00  0.00    +0.000 A 
ATOM     11  O2  UNL     1       1.435  94.064 137.607  0.00  0.00    +0.000 OA
ENDROOT
BRANCH   1  17
ATOM     12  C1  UNL     1       0.707  92.090 139.591  0.00  0.00    +0.000 A 
ATOM     13  C2  UNL     1       0.423  91.132 140.570  0.00  0.00    +0.000 A 
ATOM     14  C3  UNL     1       1.197  91.059 141.732  0.00  0.00    +0.000 A 
ATOM     15  C4  UNL     1       2.257  91.948 141.912  0.00  0.00    +0.000 A 
ATOM     16  C5  UNL     1       2.546  92.907 140.938  0.00  0.00    +0.000 A 
ATOM     17  C6  UNL     1       1.778  92.997 139.758  0.00  0.00    +0.000 A 
BRANCH  14  18
ATOM     18  O5  UNL     1       0.921  90.109 142.712  0.00  0.00    +0.000 OA
ATOM     19  H10 UNL     1       0.865  89.121 142.492  0.00  0.00    +0.000 HD
ENDBRANCH  14  18
ENDBRANCH   1  17
BRANCH   8  20
ATOM     20  O3  UNL     1       0.227  95.650 133.300  0.00  0.00    +0.000 OA
ATOM     21  H8  UNL     1       0.614  95.416 132.394  0.00  0.00    +0.000 HD
ENDBRANCH   8  20
BRANCH   6  22
ATOM     22  O4  UNL     1       3.782  97.873 135.628  0.00  0.00    +0.000 OA
ATOM     23  H9  UNL     1       3.628  98.821 135.330  0.00  0.00    +0.000 HD
ENDBRANCH   6  22
TORSDOF 4
ENDMDL
MODEL 4
REMARK VINA RESULT:      -4.8      1.830      7.433
REMARK  Name = .\Apigenin.pdb
REMARK  4 active torsions:
REMARK  status: ('A' for Active; 'I' for Inactive)
REMARK    1  A    between atoms: C3_3  and  O5_20
REMARK    2  A    between atoms: C6_6  and  C7_7
REMARK    3  A    between atoms: C11_12  and  O4_19
REMARK    4  A    between atoms: C13_14  and  O3_18
REMARK                            x       y       z     vdW  Elec       q    Type
REMARK                         _______ _______ _______ _____ _____    ______ ____
ROOT
ATOM      1  C7  UNL     1       1.651  93.796 138.247  0.00  0.00    +0.000 A 
ATOM      2  C8  UNL     1       0.853  93.420 137.155  0.00  0.00    +0.000 A 
ATOM      3  C9  UNL     1       0.846  94.199 135.997  0.00  0.00    +0.000 A 
ATOM      4  O1  UNL     1       0.117  93.827 135.043  0.00  0.00    +0.000 OA
ATOM      5  C10 UNL     1       1.641  95.369 135.927  0.00  0.00    +0.000 A 
ATOM      6  C11 UNL     1       1.718  96.247 134.799  0.00  0.00    +0.000 A 
ATOM      7  C12 UNL     1       2.547  97.374 134.859  0.00  0.00    +0.000 A 
ATOM      8  C13 UNL     1       3.302  97.658 135.999  0.00  0.00    +0.000 A 
ATOM      9  C14 UNL     1       3.234  96.810 137.101  0.00  0.00    +0.000 A 
ATOM     10  C15 UNL     1       2.418  95.678 137.075  0.00  0.00    +0.000 A 
ATOM     11  O2  UNL     1       2.387  94.899 138.151  0.00  0.00    +0.000 OA
ENDROOT
BRANCH   1  17
ATOM     12  C1  UNL     1       2.697  93.241 140.512  0.00  0.00    +0.000 A 
ATOM     13  C2  UNL     1       2.714  92.482 141.687  0.00  0.00    +0.000 A 
ATOM     14  C3  UNL     1       1.756  91.486 141.898  0.00  0.00    +0.000 A 
ATOM     15  C4  UNL     1       0.781  91.250 140.929  0.00  0.00    +0.000 A 
ATOM     16  C5  UNL     1       0.758  92.004 139.754  0.00  0.00    +0.000 A 
ATOM     17  C6  UNL     1       1.715  93.014 139.521  0.00  0.00    +0.000 A 
BRANCH  14  18
ATOM     18  O5  UNL     1       1.766  90.725 143.065  0.00  0.00    +0.000 OA
ATOM     19  H10 UNL     1       2.240  91.045 143.902  0.00  0.00    +0.000 HD
ENDBRANCH  14  18
ENDBRANCH   1  17
BRANCH   8  20
ATOM     20  O3  UNL     1       4.123  98.782 136.046  0.00  0.00    +0.000 OA
ATOM     21  H8  UNL     1       3.801  99.688 135.729  0.00  0.00    +0.000 HD
ENDBRANCH   8  20
BRANCH   6  22
ATOM     22  O4  UNL     1       1.012  96.071 133.604  0.00  0.00    +0.000 OA
ATOM     23  H9  UNL     1       0.704  95.195 133.216  0.00  0.00    +0.000 HD
ENDBRANCH   6  22
TORSDOF 4
ENDMDL
MODEL 5
REMARK VINA RESULT:      -4.7      1.500      2.981
REMARK  Name = .\Apigenin.pdb
REMARK  4 active torsions:
REMARK  status: ('A' for Active; 'I' for Inactive)
REMARK    1  A    between atoms: C3_3  and  O5_20
REMARK    2  A    between atoms: C6_6  and  C7_7
REMARK    3  A    between atoms: C11_12  and  O4_19
REMARK    4  A    between atoms: C13_14  and  O3_18
REMARK                            x       y       z     vdW  Elec       q    Type
REMARK                         _______ _______ _______ _____ _____    ______ ____
ROOT
ATOM      1  C7  UNL     1       1.830  94.001 138.135  0.00  0.00    +0.000 A 
ATOM      2  C8  UNL     1       1.112  92.858 138.519  0.00  0.00    +0.000 A 
ATOM      3  C9  UNL     1       1.372  92.253 139.750  0.00  0.00    +0.000 A 
ATOM      4  O1  UNL     1       0.707  91.231 140.055  0.00  0.00    +0.000 OA
ATOM      5  C10 UNL     1       2.362  92.792 140.608  0.00  0.00    +0.000 A 
ATOM      6  C11 UNL     1       2.719  92.264 141.890  0.00  0.00    +0.000 A 
ATOM      7  C12 UNL     1       3.718  92.895 142.641  0.00  0.00    +0.000 A 
ATOM      8  C13 UNL     1       4.373  94.033 142.164  0.00  0.00    +0.000 A 
ATOM      9  C14 UNL     1       4.033  94.554 140.919  0.00  0.00    +0.000 A 
ATOM     10  C15 UNL     1       3.042  93.949 140.144  0.00  0.00    +0.000 A 
ATOM     11  O2  UNL     1       2.752  94.484 138.962  0.00  0.00    +0.000 OA
ENDROOT
BRANCH   1  17
ATOM     12  C1  UNL     1       0.680  94.263 135.868  0.00  0.00    +0.000 A 
ATOM     13  C2  UNL     1       0.511  94.959 134.667  0.00  0.00    +0.000 A 
ATOM     14  C3  UNL     1       1.262  96.109 134.405  0.00  0.00    +0.000 A 
ATOM     15  C4  UNL     1       2.184  96.560 135.349  0.00  0.00    +0.000 A 
ATOM     16  C5  UNL     1       2.358  95.870 136.551  0.00  0.00    +0.000 A 
ATOM     17  C6  UNL     1       1.610  94.708 136.835  0.00  0.00    +0.000 A 
BRANCH  14  18
ATOM     18  O5  UNL     1       1.100  96.808 133.211  0.00  0.00    +0.000 OA
ATOM     19  H10 UNL     1       0.937  97.809 133.201  0.00  0.00    +0.000 HD
ENDBRANCH  14  18
ENDBRANCH   1  17
BRANCH   8  20
ATOM     20  O3  UNL     1       5.365  94.651 142.921  0.00  0.00    +0.000 OA
ATOM     21  H8  UNL     1       5.377  95.654 143.063  0.00  0.00    +0.000 HD
ENDBRANCH   8  20
BRANCH   6  22
ATOM     22  O4  UNL     1       2.137  91.134 142.474  0.00  0.00    +0.000 OA
ATOM     23  H9  UNL     1       1.152  90.963 142.593  0.00  0.00    +0.000 HD
ENDBRANCH   6  22
TORSDOF 4
ENDMDL
MODEL 6
REMARK VINA RESULT:      -4.7      1.830      7.338
REMARK  Name = .\Apigenin.pdb
REMARK  4 active torsions:
REMARK  status: ('A' for Active; 'I' for Inactive)
REMARK    1  A    between atoms: C3_3  and  O5_20
REMARK    2  A    between atoms: C6_6  and  C7_7
REMARK    3  A    between atoms: C11_12  and  O4_19
REMARK    4  A    between atoms: C13_14  and  O3_18
REMARK                            x       y       z     vdW  Elec       q    Type
REMARK                         _______ _______ _______ _____ _____    ______ ____
ROOT
ATOM      1  C7  UNL     1       1.632  93.753 138.275  0.00  0.00    +0.000 A 
ATOM      2  C8  UNL     1       0.839  93.400 137.171  0.00  0.00    +0.000 A 
ATOM      3  C9  UNL     1       0.851  94.194 136.023  0.00  0.00    +0.000 A 
ATOM      4  O1  UNL     1       0.126  93.843 135.058  0.00  0.00    +0.000 OA
ATOM      5  C10 UNL     1       1.661  95.355 135.974  0.00  0.00    +0.000 A 
ATOM      6  C11 UNL     1       1.758  96.246 134.858  0.00  0.00    +0.000 A 
ATOM      7  C12 UNL     1       2.600  97.362 134.939  0.00  0.00    +0.000 A 
ATOM      8  C13 UNL     1       3.349  97.622 136.088  0.00  0.00    +0.000 A 
ATOM      9  C14 UNL     1       3.262  96.761 137.179  0.00  0.00    +0.000 A 
ATOM     10  C15 UNL     1       2.432  95.640 137.132  0.00  0.00    +0.000 A 
ATOM     11  O2  UNL     1       2.383  94.848 138.198  0.00  0.00    +0.000 OA
ENDROOT
BRANCH   1  17
ATOM     12  C1  UNL     1       0.757  91.922 139.827  0.00  0.00    +0.000 A 
ATOM     13  C2  UNL     1       0.840  91.204 141.024  0.00  0.00    +0.000 A 
ATOM     14  C3  UNL     1       1.838  91.501 141.958  0.00  0.00    +0.000 A 
ATOM     15  C4  UNL     1       2.753  92.519 141.689  0.00  0.00    +0.000 A 
ATOM     16  C5  UNL     1       2.675  93.240 140.494  0.00  0.00    +0.000 A 
ATOM     17  C6  UNL     1       1.676  92.955 139.539  0.00  0.00    +0.000 A 
BRANCH  14  18
ATOM     18  O5  UNL     1       1.928  90.793 143.154  0.00  0.00    +0.000 OA
ATOM     19  H10 UNL     1       1.121  90.659 143.753  0.00  0.00    +0.000 HD
ENDBRANCH  14  18
ENDBRANCH   1  17
BRANCH   8  20
ATOM     20  O3  UNL     1       4.183  98.736 136.156  0.00  0.00    +0.000 OA
ATOM     21  H8  UNL     1       3.933  99.554 136.698  0.00  0.00    +0.000 HD
ENDBRANCH   8  20
BRANCH   6  22
ATOM     22  O4  UNL     1       1.060  96.093 133.655  0.00  0.00    +0.000 OA
ATOM     23  H9  UNL     1       1.461  96.037 132.734  0.00  0.00    +0.000 HD
ENDBRANCH   6  22
TORSDOF 4
ENDMDL
MODEL 7
REMARK VINA RESULT:      -4.7      1.538      2.205
REMARK  Name = .\Apigenin.pdb
REMARK  4 active torsions:
REMARK  status: ('A' for Active; 'I' for Inactive)
REMARK    1  A    between atoms: C3_3  and  O5_20
REMARK    2  A    between atoms: C6_6  and  C7_7
REMARK    3  A    between atoms: C11_12  and  O4_19
REMARK    4  A    between atoms: C13_14  and  O3_18
REMARK                            x       y       z     vdW  Elec       q    Type
REMARK                         _______ _______ _______ _____ _____    ______ ____
ROOT
ATOM      1  C7  UNL     1       2.848  94.974 138.600  0.00  0.00    +0.000 A 
ATOM      2  C8  UNL     1       3.809  95.115 139.614  0.00  0.00    +0.000 A 
ATOM      3  C9  UNL     1       3.791  94.256 140.714  0.00  0.00    +0.000 A 
ATOM      4  O1  UNL     1       4.669  94.417 141.599  0.00  0.00    +0.000 OA
ATOM      5  C10 UNL     1       2.802  93.246 140.808  0.00  0.00    +0.000 A 
ATOM      6  C11 UNL     1       2.680  92.309 141.883  0.00  0.00    +0.000 A 
ATOM      7  C12 UNL     1       1.654  91.357 141.853  0.00  0.00    +0.000 A 
ATOM      8  C13 UNL     1       0.747  91.303 140.792  0.00  0.00    +0.000 A 
ATOM      9  C14 UNL     1       0.857  92.210 139.742  0.00  0.00    +0.000 A 
ATOM     10  C15 UNL     1       1.868  93.172 139.740  0.00  0.00    +0.000 A 
ATOM     11  O2  UNL     1       1.933  94.016 138.716  0.00  0.00    +0.000 OA
ENDROOT
BRANCH   1  17
ATOM     12  C1  UNL     1       3.403  97.129 137.345  0.00  0.00    +0.000 A 
ATOM     13  C2  UNL     1       3.331  97.913 136.188  0.00  0.00    +0.000 A 
ATOM     14  C3  UNL     1       2.658  97.440 135.056  0.00  0.00    +0.000 A 
ATOM     15  C4  UNL     1       2.058  96.181 135.086  0.00  0.00    +0.000 A 
ATOM     16  C5  UNL     1       2.127  95.394 136.238  0.00  0.00    +0.000 A 
ATOM     17  C6  UNL     1       2.801  95.852 137.390  0.00  0.00    +0.000 A 
BRANCH  14  18
ATOM     18  O5  UNL     1       2.581  98.214 133.900  0.00  0.00    +0.000 OA
ATOM     19  H10 UNL     1       3.237  98.965 133.720  0.00  0.00    +0.000 HD
ENDBRANCH  14  18
ENDBRANCH   1  17
BRANCH   8  20
ATOM     20  O3  UNL     1      -0.269  90.350 140.774  0.00  0.00    +0.000 OA
ATOM     21  H8  UNL     1      -0.110  89.397 141.078  0.00  0.00    +0.000 HD
ENDBRANCH   8  20
BRANCH   6  22
ATOM     22  O4  UNL     1       3.525  92.262 142.997  0.00  0.00    +0.000 OA
ATOM     23  H9  UNL     1       3.834  93.047 143.546  0.00  0.00    +0.000 HD
ENDBRANCH   6  22
TORSDOF 4
ENDMDL
MODEL 8
REMARK VINA RESULT:      -3.6      2.251      7.647
REMARK  Name = .\Apigenin.pdb
REMARK  4 active torsions:
REMARK  status: ('A' for Active; 'I' for Inactive)
REMARK    1  A    between atoms: C3_3  and  O5_20
REMARK    2  A    between atoms: C6_6  and  C7_7
REMARK    3  A    between atoms: C11_12  and  O4_19
REMARK    4  A    between atoms: C13_14  and  O3_18
REMARK                            x       y       z     vdW  Elec       q    Type
REMARK                         _______ _______ _______ _____ _____    ______ ____
ROOT
ATOM      1  C7  UNL     1       2.653  94.605 138.537  0.00  0.00    +0.000 A 
ATOM      2  C8  UNL     1       1.708  93.782 137.903  0.00  0.00    +0.000 A 
ATOM      3  C9  UNL     1       1.216  94.130 136.644  0.00  0.00    +0.000 A 
ATOM      4  O1  UNL     1       0.370  93.366 136.113  0.00  0.00    +0.000 OA
ATOM      5  C10 UNL     1       1.668  95.312 136.009  0.00  0.00    +0.000 A 
ATOM      6  C11 UNL     1       1.239  95.774 134.724  0.00  0.00    +0.000 A 
ATOM      7  C12 UNL     1       1.767  96.964 134.208  0.00  0.00    +0.000 A 
ATOM      8  C13 UNL     1       2.706  97.709 134.923  0.00  0.00    +0.000 A 
ATOM      9  C14 UNL     1       3.130  97.269 136.174  0.00  0.00    +0.000 A 
ATOM     10  C15 UNL     1       2.624  96.087 136.718  0.00  0.00    +0.000 A 
ATOM     11  O2  UNL     1       3.059  95.708 137.915  0.00  0.00    +0.000 OA
ENDROOT
BRANCH   1  17
ATOM     12  C1  UNL     1       4.247  95.083 140.476  0.00  0.00    +0.000 A 
ATOM     13  C2  UNL     1       4.754  94.757 141.738  0.00  0.00    +0.000 A 
ATOM     14  C3  UNL     1       4.259  93.650 142.434  0.00  0.00    +0.000 A 
ATOM     15  C4  UNL     1       3.255  92.869 141.862  0.00  0.00    +0.000 A 
ATOM     16  C5  UNL     1       2.744  93.188 140.601  0.00  0.00    +0.000 A 
ATOM     17  C6  UNL     1       3.230  94.302 139.883  0.00  0.00    +0.000 A 
BRANCH  14  18
ATOM     18  O5  UNL     1       4.757  93.318 143.691  0.00  0.00    +0.000 OA
ATOM     19  H10 UNL     1       4.140  93.116 144.470  0.00  0.00    +0.000 HD
ENDBRANCH  14  18
ENDBRANCH   1  17
BRANCH   8  20
ATOM     20  O3  UNL     1       3.224  98.891 134.399  0.00  0.00    +0.000 OA
ATOM     21  H8  UNL     1       3.317  99.033 133.400  0.00  0.00    +0.000 HD
ENDBRANCH   8  20
BRANCH   6  22
ATOM     22  O4  UNL     1       0.306  95.117 133.914  0.00  0.00    +0.000 OA
ATOM     23  H9  UNL     1       0.495  94.650 133.043  0.00  0.00    +0.000 HD
ENDBRANCH   6  22
TORSDOF 4
ENDMDL
MODEL 9
REMARK VINA RESULT:      -2.5      2.648      6.595
REMARK  Name = .\Apigenin.pdb
REMARK  4 active torsions:
REMARK  status: ('A' for Active; 'I' for Inactive)
REMARK    1  A    between atoms: C3_3  and  O5_20
REMARK    2  A    between atoms: C6_6  and  C7_7
REMARK    3  A    between atoms: C11_12  and  O4_19
REMARK    4  A    between atoms: C13_14  and  O3_18
REMARK                            x       y       z     vdW  Elec       q    Type
REMARK                         _______ _______ _______ _____ _____    ______ ____
ROOT
ATOM      1  C7  UNL     1       1.860  93.261 141.213  0.00  0.00    +0.000 A 
ATOM      2  C8  UNL     1       1.996  93.342 139.818  0.00  0.00    +0.000 A 
ATOM      3  C9  UNL     1       2.801  94.333 139.253  0.00  0.00    +0.000 A 
ATOM      4  O1  UNL     1       2.895  94.371 138.000  0.00  0.00    +0.000 OA
ATOM      5  C10 UNL     1       3.477  95.256 140.087  0.00  0.00    +0.000 A 
ATOM      6  C11 UNL     1       4.327  96.313 139.629  0.00  0.00    +0.000 A 
ATOM      7  C12 UNL     1       4.938  97.158 140.563  0.00  0.00    +0.000 A 
ATOM      8  C13 UNL     1       4.736  96.990 141.935  0.00  0.00    +0.000 A 
ATOM      9  C14 UNL     1       3.911  95.965 142.390  0.00  0.00    +0.000 A 
ATOM     10  C15 UNL     1       3.286  95.104 141.487  0.00  0.00    +0.000 A 
ATOM     11  O2  UNL     1       2.508  94.141 141.970  0.00  0.00    +0.000 OA
ENDROOT
BRANCH   1  17
ATOM     12  C1  UNL     1       0.209  92.517 143.016  0.00  0.00    +0.000 A 
ATOM     13  C2  UNL     1      -0.560  91.516 143.618  0.00  0.00    +0.000 A 
ATOM     14  C3  UNL     1      -0.538  90.211 143.117  0.00  0.00    +0.000 A 
ATOM     15  C4  UNL     1       0.258  89.910 142.011  0.00  0.00    +0.000 A 
ATOM     16  C5  UNL     1       1.028  90.905 141.405  0.00  0.00    +0.000 A 
ATOM     17  C6  UNL     1       1.019  92.229 141.894  0.00  0.00    +0.000 A 
BRANCH  14  18
ATOM     18  O5  UNL     1      -1.300  89.207 143.711  0.00  0.00    +0.000 OA
ATOM     19  H10 UNL     1      -1.323  88.267 143.333  0.00  0.00    +0.000 HD
ENDBRANCH  14  18
ENDBRANCH   1  17
BRANCH   8  20
ATOM     20  O3  UNL     1       5.350  97.838 142.853  0.00  0.00    +0.000 OA
ATOM     21  H8  UNL     1       5.347  97.638 143.846  0.00  0.00    +0.000 HD
ENDBRANCH   8  20
BRANCH   6  22
ATOM     22  O4  UNL     1       4.607  96.582 138.285  0.00  0.00    +0.000 OA
ATOM     23  H9  UNL     1       3.937  96.654 137.538  0.00  0.00    +0.000 HD
ENDBRANCH   6  22
TORSDOF 4
ENDMDL
