MODEL 1
REMARK VINA RESULT:      -5.0      0.000      0.000
REMARK  Name = .\Apigenin.pdb
REMARK  4 active torsions:
REMARK  status: ('A' for Active; 'I' for Inactive)
REMARK    1  A    between atoms: C3_3  and  O5_20
REMARK    2  A    between atoms: C6_6  and  C7_7
REMARK    3  A    between atoms: C11_12  and  O4_19
REMARK    4  A    between atoms: C13_14  and  O3_18
REMARK                            x       y       z     vdW  Elec       q    Type
REMARK                         _______ _______ _______ _____ _____    ______ ____
ROOT
ATOM      1  C7  UNL     1      -7.531  43.379 -33.492  0.00  0.00    +0.000 A 
ATOM      2  C8  UNL     1      -8.577  42.478 -33.750  0.00  0.00    +0.000 A 
ATOM      3  C9  UNL     1      -9.729  42.918 -34.404  0.00  0.00    +0.000 A 
ATOM      4  O1  UNL     1     -10.642  42.079 -34.614  0.00  0.00    +0.000 OA
ATOM      5  C10 UNL     1      -9.842  44.271 -34.806  0.00  0.00    +0.000 A 
ATOM      6  C11 UNL     1     -10.969  44.840 -35.481  0.00  0.00    +0.000 A 
ATOM      7  C12 UNL     1     -10.953  46.197 -35.824  0.00  0.00    +0.000 A 
ATOM      8  C13 UNL     1      -9.857  47.008 -35.521  0.00  0.00    +0.000 A 
ATOM      9  C14 UNL     1      -8.757  46.465 -34.864  0.00  0.00    +0.000 A 
ATOM     10  C15 UNL     1      -8.740  45.115 -34.507  0.00  0.00    +0.000 A 
ATOM     11  O2  UNL     1      -7.666  44.643 -33.882  0.00  0.00    +0.000 OA
ENDROOT
BRANCH   1  17
ATOM     12  C1  UNL     1      -4.984  43.248 -33.333  0.00  0.00    +0.000 A 
ATOM     13  C2  UNL     1      -3.830  42.860 -32.645  0.00  0.00    +0.000 A 
ATOM     14  C3  UNL     1      -3.929  42.206 -31.413  0.00  0.00    +0.000 A 
ATOM     15  C4  UNL     1      -5.187  41.940 -30.872  0.00  0.00    +0.000 A 
ATOM     16  C5  UNL     1      -6.344  42.324 -31.555  0.00  0.00    +0.000 A 
ATOM     17  C6  UNL     1      -6.266  42.986 -32.798  0.00  0.00    +0.000 A 
BRANCH  14  18
ATOM     18  O5  UNL     1      -2.785  41.815 -30.720  0.00  0.00    +0.000 OA
ATOM     19  H10 UNL     1      -2.057  41.269 -31.166  0.00  0.00    +0.000 HD
ENDBRANCH  14  18
ENDBRANCH   1  17
BRANCH   8  20
ATOM     20  O3  UNL     1      -9.854  48.357 -35.868  0.00  0.00    +0.000 OA
ATOM     21  H8  UNL     1      -9.027  48.932 -35.759  0.00  0.00    +0.000 HD
ENDBRANCH   8  20
BRANCH   6  22
ATOM     22  O4  UNL     1     -12.122  44.132 -35.839  0.00  0.00    +0.000 OA
ATOM     23  H9  UNL     1     -13.049  44.510 -35.933  0.00  0.00    +0.000 HD
ENDBRANCH   6  22
TORSDOF 4
ENDMDL
MODEL 2
REMARK VINA RESULT:      -4.8      1.634      1.655
REMARK  Name = .\Apigenin.pdb
REMARK  4 active torsions:
REMARK  status: ('A' for Active; 'I' for Inactive)
REMARK    1  A    between atoms: C3_3  and  O5_20
REMARK    2  A    between atoms: C6_6  and  C7_7
REMARK    3  A    between atoms: C11_12  and  O4_19
REMARK    4  A    between atoms: C13_14  and  O3_18
REMARK                            x       y       z     vdW  Elec       q    Type
REMARK                         _______ _______ _______ _____ _____    ______ ____
ROOT
ATOM      1  C7  UNL     1      -7.749  43.971 -32.482  0.00  0.00    +0.000 A 
ATOM      2  C8  UNL     1      -8.940  43.734 -31.778  0.00  0.00    +0.000 A 
ATOM      3  C9  UNL     1     -10.103  44.422 -32.126  0.00  0.00    +0.000 A 
ATOM      4  O1  UNL     1     -11.148  44.181 -31.470  0.00  0.00    +0.000 OA
ATOM      5  C10 UNL     1     -10.080  45.360 -33.187  0.00  0.00    +0.000 A 
ATOM      6  C11 UNL     1     -11.203  46.125 -33.636  0.00  0.00    +0.000 A 
ATOM      7  C12 UNL     1     -11.044  47.021 -34.701  0.00  0.00    +0.000 A 
ATOM      8  C13 UNL     1      -9.810  47.182 -35.335  0.00  0.00    +0.000 A 
ATOM      9  C14 UNL     1      -8.712  46.442 -34.905  0.00  0.00    +0.000 A 
ATOM     10  C15 UNL     1      -8.835  45.540 -33.846  0.00  0.00    +0.000 A 
ATOM     11  O2  UNL     1      -7.759  44.857 -33.473  0.00  0.00    +0.000 OA
ENDROOT
BRANCH   1  17
ATOM     12  C1  UNL     1      -5.343  43.310 -33.032  0.00  0.00    +0.000 A 
ATOM     13  C2  UNL     1      -4.161  42.641 -32.696  0.00  0.00    +0.000 A 
ATOM     14  C3  UNL     1      -4.071  41.924 -31.498  0.00  0.00    +0.000 A 
ATOM     15  C4  UNL     1      -5.168  41.879 -30.638  0.00  0.00    +0.000 A 
ATOM     16  C5  UNL     1      -6.351  42.546 -30.967  0.00  0.00    +0.000 A 
ATOM     17  C6  UNL     1      -6.462  43.274 -32.171  0.00  0.00    +0.000 A 
BRANCH  14  18
ATOM     18  O5  UNL     1      -2.899  41.255 -31.156  0.00  0.00    +0.000 OA
ATOM     19  H10 UNL     1      -2.918  40.392 -30.624  0.00  0.00    +0.000 HD
ENDBRANCH  14  18
ENDBRANCH   1  17
BRANCH   8  20
ATOM     20  O3  UNL     1      -9.666  48.076 -36.393  0.00  0.00    +0.000 OA
ATOM     21  H8  UNL     1     -10.385  48.753 -36.617  0.00  0.00    +0.000 HD
ENDBRANCH   8  20
BRANCH   6  22
ATOM     22  O4  UNL     1     -12.487  46.053 -33.084  0.00  0.00    +0.000 OA
ATOM     23  H9  UNL     1     -12.840  45.324 -32.488  0.00  0.00    +0.000 HD
ENDBRANCH   6  22
TORSDOF 4
ENDMDL
MODEL 3
REMARK VINA RESULT:      -4.5      1.072      2.707
REMARK  Name = .\Apigenin.pdb
REMARK  4 active torsions:
REMARK  status: ('A' for Active; 'I' for Inactive)
REMARK    1  A    between atoms: C3_3  and  O5_20
REMARK    2  A    between atoms: C6_6  and  C7_7
REMARK    3  A    between atoms: C11_12  and  O4_19
REMARK    4  A    between atoms: C13_14  and  O3_18
REMARK                            x       y       z     vdW  Elec       q    Type
REMARK                         _______ _______ _______ _____ _____    ______ ____
ROOT
ATOM      1  C7  UNL     1      -7.203  44.061 -33.521  0.00  0.00    +0.000 A 
ATOM      2  C8  UNL     1      -7.202  45.424 -33.855  0.00  0.00    +0.000 A 
ATOM      3  C9  UNL     1      -8.304  45.983 -34.505  0.00  0.00    +0.000 A 
ATOM      4  O1  UNL     1      -8.262  47.207 -34.787  0.00  0.00    +0.000 OA
ATOM      5  C10 UNL     1      -9.420  45.173 -34.827  0.00  0.00    +0.000 A 
ATOM      6  C11 UNL     1     -10.605  45.627 -35.490  0.00  0.00    +0.000 A 
ATOM      7  C12 UNL     1     -11.639  44.720 -35.750  0.00  0.00    +0.000 A 
ATOM      8  C13 UNL     1     -11.538  43.379 -35.374  0.00  0.00    +0.000 A 
ATOM      9  C14 UNL     1     -10.391  42.927 -34.729  0.00  0.00    +0.000 A 
ATOM     10  C15 UNL     1      -9.340  43.805 -34.454  0.00  0.00    +0.000 A 
ATOM     11  O2  UNL     1      -8.266  43.327 -33.836  0.00  0.00    +0.000 OA
ENDROOT
BRANCH   1  17
ATOM     12  C1  UNL     1      -4.739  43.415 -33.318  0.00  0.00    +0.000 A 
ATOM     13  C2  UNL     1      -3.707  42.770 -32.628  0.00  0.00    +0.000 A 
ATOM     14  C3  UNL     1      -3.972  42.087 -31.437  0.00  0.00    +0.000 A 
ATOM     15  C4  UNL     1      -5.274  42.052 -30.937  0.00  0.00    +0.000 A 
ATOM     16  C5  UNL     1      -6.309  42.694 -31.620  0.00  0.00    +0.000 A 
ATOM     17  C6  UNL     1      -6.063  43.389 -32.824  0.00  0.00    +0.000 A 
BRANCH  14  18
ATOM     18  O5  UNL     1      -2.950  41.442 -30.744  0.00  0.00    +0.000 OA
ATOM     19  H10 UNL     1      -2.391  41.927 -30.051  0.00  0.00    +0.000 HD
ENDBRANCH  14  18
ENDBRANCH   1  17
BRANCH   8  20
ATOM     20  O3  UNL     1     -12.575  42.487 -35.638  0.00  0.00    +0.000 OA
ATOM     21  H8  UNL     1     -13.426  42.784 -36.100  0.00  0.00    +0.000 HD
ENDBRANCH   8  20
BRANCH   6  22
ATOM     22  O4  UNL     1     -10.823  46.942 -35.915  0.00  0.00    +0.000 OA
ATOM     23  H9  UNL     1     -11.346  47.229 -36.726  0.00  0.00    +0.000 HD
ENDBRANCH   6  22
TORSDOF 4
ENDMDL
MODEL 4
REMARK VINA RESULT:      -4.4      2.058      2.652
REMARK  Name = .\Apigenin.pdb
REMARK  4 active torsions:
REMARK  status: ('A' for Active; 'I' for Inactive)
REMARK    1  A    between atoms: C3_3  and  O5_20
REMARK    2  A    between atoms: C6_6  and  C7_7
REMARK    3  A    between atoms: C11_12  and  O4_19
REMARK    4  A    between atoms: C13_14  and  O3_18
REMARK                            x       y       z     vdW  Elec       q    Type
REMARK                         _______ _______ _______ _____ _____    ______ ____
ROOT
ATOM      1  C7  UNL     1      -7.600  43.865 -33.045  0.00  0.00    +0.000 A 
ATOM      2  C8  UNL     1      -8.077  44.352 -31.818  0.00  0.00    +0.000 A 
ATOM      3  C9  UNL     1      -9.357  44.902 -31.738  0.00  0.00    +0.000 A 
ATOM      4  O1  UNL     1      -9.746  45.327 -30.621  0.00  0.00    +0.000 OA
ATOM      5  C10 UNL     1     -10.171  44.971 -32.895  0.00  0.00    +0.000 A 
ATOM      6  C11 UNL     1     -11.496  45.511 -32.940  0.00  0.00    +0.000 A 
ATOM      7  C12 UNL     1     -12.196  45.518 -34.153  0.00  0.00    +0.000 A 
ATOM      8  C13 UNL     1     -11.626  45.007 -35.321  0.00  0.00    +0.000 A 
ATOM      9  C14 UNL     1     -10.339  44.479 -35.287  0.00  0.00    +0.000 A 
ATOM     10  C15 UNL     1      -9.613  44.457 -34.095  0.00  0.00    +0.000 A 
ATOM     11  O2  UNL     1      -8.388  43.942 -34.113  0.00  0.00    +0.000 OA
ENDROOT
BRANCH   1  17
ATOM     12  C1  UNL     1      -5.088  44.028 -33.487  0.00  0.00    +0.000 A 
ATOM     13  C2  UNL     1      -3.840  43.414 -33.635  0.00  0.00    +0.000 A 
ATOM     14  C3  UNL     1      -3.716  42.027 -33.514  0.00  0.00    +0.000 A 
ATOM     15  C4  UNL     1      -4.846  41.255 -33.243  0.00  0.00    +0.000 A 
ATOM     16  C5  UNL     1      -6.096  41.861 -33.094  0.00  0.00    +0.000 A 
ATOM     17  C6  UNL     1      -6.242  43.260 -33.212  0.00  0.00    +0.000 A 
BRANCH  14  18
ATOM     18  O5  UNL     1      -2.478  41.407 -33.660  0.00  0.00    +0.000 OA
ATOM     19  H10 UNL     1      -2.350  40.423 -33.453  0.00  0.00    +0.000 HD
ENDBRANCH  14  18
ENDBRANCH   1  17
BRANCH   8  20
ATOM     20  O3  UNL     1     -12.333  45.019 -36.521  0.00  0.00    +0.000 OA
ATOM     21  H8  UNL     1     -13.254  45.436 -36.591  0.00  0.00    +0.000 HD
ENDBRANCH   8  20
BRANCH   6  22
ATOM     22  O4  UNL     1     -12.173  46.051 -31.841  0.00  0.00    +0.000 OA
ATOM     23  H9  UNL     1     -12.866  46.780 -31.865  0.00  0.00    +0.000 HD
ENDBRANCH   6  22
TORSDOF 4
ENDMDL
MODEL 5
REMARK VINA RESULT:      -4.3      1.559      1.901
REMARK  Name = .\Apigenin.pdb
REMARK  4 active torsions:
REMARK  status: ('A' for Active; 'I' for Inactive)
REMARK    1  A    between atoms: C3_3  and  O5_20
REMARK    2  A    between atoms: C6_6  and  C7_7
REMARK    3  A    between atoms: C11_12  and  O4_19
REMARK    4  A    between atoms: C13_14  and  O3_18
REMARK                            x       y       z     vdW  Elec       q    Type
REMARK                         _______ _______ _______ _____ _____    ______ ____
ROOT
ATOM      1  C7  UNL     1      -7.515  42.967 -33.282  0.00  0.00    +0.000 A 
ATOM      2  C8  UNL     1      -7.824  42.277 -34.465  0.00  0.00    +0.000 A 
ATOM      3  C9  UNL     1      -8.978  42.604 -35.180  0.00  0.00    +0.000 A 
ATOM      4  O1  UNL     1      -9.218  41.961 -36.233  0.00  0.00    +0.000 OA
ATOM      5  C10 UNL     1      -9.835  43.628 -34.710  0.00  0.00    +0.000 A 
ATOM      6  C11 UNL     1     -11.043  44.052 -35.352  0.00  0.00    +0.000 A 
ATOM      7  C12 UNL     1     -11.801  45.081 -34.781  0.00  0.00    +0.000 A 
ATOM      8  C13 UNL     1     -11.402  45.704 -33.596  0.00  0.00    +0.000 A 
ATOM      9  C14 UNL     1     -10.230  45.299 -32.965  0.00  0.00    +0.000 A 
ATOM     10  C15 UNL     1      -9.450  44.275 -33.506  0.00  0.00    +0.000 A 
ATOM     11  O2  UNL     1      -8.339  43.924 -32.867  0.00  0.00    +0.000 OA
ENDROOT
BRANCH   1  17
ATOM     12  C1  UNL     1      -6.364  42.298 -31.101  0.00  0.00    +0.000 A 
ATOM     13  C2  UNL     1      -5.196  42.039 -30.376  0.00  0.00    +0.000 A 
ATOM     14  C3  UNL     1      -3.944  42.152 -30.988  0.00  0.00    +0.000 A 
ATOM     15  C4  UNL     1      -3.864  42.527 -32.329  0.00  0.00    +0.000 A 
ATOM     16  C5  UNL     1      -5.026  42.787 -33.060  0.00  0.00    +0.000 A 
ATOM     17  C6  UNL     1      -6.299  42.678 -32.461  0.00  0.00    +0.000 A 
BRANCH  14  18
ATOM     18  O5  UNL     1      -2.776  41.896 -30.273  0.00  0.00    +0.000 OA
ATOM     19  H10 UNL     1      -1.867  42.167 -30.630  0.00  0.00    +0.000 HD
ENDBRANCH  14  18
ENDBRANCH   1  17
BRANCH   8  20
ATOM     20  O3  UNL     1     -12.166  46.726 -33.039  0.00  0.00    +0.000 OA
ATOM     21  H8  UNL     1     -12.781  47.299 -33.604  0.00  0.00    +0.000 HD
ENDBRANCH   8  20
BRANCH   6  22
ATOM     22  O4  UNL     1     -11.546  43.508 -36.539  0.00  0.00    +0.000 OA
ATOM     23  H9  UNL     1     -11.443  43.892 -37.463  0.00  0.00    +0.000 HD
ENDBRANCH   6  22
TORSDOF 4
ENDMDL
MODEL 6
REMARK VINA RESULT:      -3.4      1.975      2.869
REMARK  Name = .\Apigenin.pdb
REMARK  4 active torsions:
REMARK  status: ('A' for Active; 'I' for Inactive)
REMARK    1  A    between atoms: C3_3  and  O5_20
REMARK    2  A    between atoms: C6_6  and  C7_7
REMARK    3  A    between atoms: C11_12  and  O4_19
REMARK    4  A    between atoms: C13_14  and  O3_18
REMARK                            x       y       z     vdW  Elec       q    Type
REMARK                         _______ _______ _______ _____ _____    ______ ____
ROOT
ATOM      1  C7  UNL     1      -7.578  43.136 -32.475  0.00  0.00    +0.000 A 
ATOM      2  C8  UNL     1      -8.483  44.027 -31.875  0.00  0.00    +0.000 A 
ATOM      3  C9  UNL     1      -9.677  44.346 -32.523  0.00  0.00    +0.000 A 
ATOM      4  O1  UNL     1     -10.459  45.148 -31.952  0.00  0.00    +0.000 OA
ATOM      5  C10 UNL     1      -9.974  43.773 -33.783  0.00  0.00    +0.000 A 
ATOM      6  C11 UNL     1     -11.161  44.022 -34.544  0.00  0.00    +0.000 A 
ATOM      7  C12 UNL     1     -11.332  43.388 -35.781  0.00  0.00    +0.000 A 
ATOM      8  C13 UNL     1     -10.366  42.515 -36.287  0.00  0.00    +0.000 A 
ATOM      9  C14 UNL     1      -9.209  42.267 -35.556  0.00  0.00    +0.000 A 
ATOM     10  C15 UNL     1      -9.006  42.883 -34.319  0.00  0.00    +0.000 A 
ATOM     11  O2  UNL     1      -7.885  42.614 -33.658  0.00  0.00    +0.000 OA
ENDROOT
BRANCH   1  17
ATOM     12  C1  UNL     1      -6.165  42.379 -30.485  0.00  0.00    +0.000 A 
ATOM     13  C2  UNL     1      -4.926  42.019 -29.943  0.00  0.00    +0.000 A 
ATOM     14  C3  UNL     1      -3.780  42.013 -30.744  0.00  0.00    +0.000 A 
ATOM     15  C4  UNL     1      -3.877  42.371 -32.089  0.00  0.00    +0.000 A 
ATOM     16  C5  UNL     1      -5.111  42.732 -32.636  0.00  0.00    +0.000 A 
ATOM     17  C6  UNL     1      -6.279  42.742 -31.845  0.00  0.00    +0.000 A 
BRANCH  14  18
ATOM     18  O5  UNL     1      -2.542  41.657 -30.213  0.00  0.00    +0.000 OA
ATOM     19  H10 UNL     1      -1.947  40.976 -30.670  0.00  0.00    +0.000 HD
ENDBRANCH  14  18
ENDBRANCH   1  17
BRANCH   8  20
ATOM     20  O3  UNL     1     -10.549  41.891 -37.519  0.00  0.00    +0.000 OA
ATOM     21  H8  UNL     1     -10.461  42.400 -38.390  0.00  0.00    +0.000 HD
ENDBRANCH   8  20
BRANCH   6  22
ATOM     22  O4  UNL     1     -12.198  44.872 -34.144  0.00  0.00    +0.000 OA
ATOM     23  H9  UNL     1     -13.054  44.599 -33.692  0.00  0.00    +0.000 HD
ENDBRANCH   6  22
TORSDOF 4
ENDMDL
MODEL 7
REMARK VINA RESULT:      -2.3      1.160      2.814
REMARK  Name = .\Apigenin.pdb
REMARK  4 active torsions:
REMARK  status: ('A' for Active; 'I' for Inactive)
REMARK    1  A    between atoms: C3_3  and  O5_20
REMARK    2  A    between atoms: C6_6  and  C7_7
REMARK    3  A    between atoms: C11_12  and  O4_19
REMARK    4  A    between atoms: C13_14  and  O3_18
REMARK                            x       y       z     vdW  Elec       q    Type
REMARK                         _______ _______ _______ _____ _____    ______ ____
ROOT
ATOM      1  C7  UNL     1      -6.787  44.635 -33.264  0.00  0.00    +0.000 A 
ATOM      2  C8  UNL     1      -6.512  45.925 -33.744  0.00  0.00    +0.000 A 
ATOM      3  C9  UNL     1      -7.526  46.677 -34.339  0.00  0.00    +0.000 A 
ATOM      4  O1  UNL     1      -7.238  47.827 -34.756  0.00  0.00    +0.000 OA
ATOM      5  C10 UNL     1      -8.830  46.137 -34.459  0.00  0.00    +0.000 A 
ATOM      6  C11 UNL     1      -9.949  46.807 -35.048  0.00  0.00    +0.000 A 
ATOM      7  C12 UNL     1     -11.189  46.158 -35.103  0.00  0.00    +0.000 A 
ATOM      8  C13 UNL     1     -11.355  44.869 -34.593  0.00  0.00    +0.000 A 
ATOM      9  C14 UNL     1     -10.273  44.209 -34.019  0.00  0.00    +0.000 A 
ATOM     10  C15 UNL     1      -9.023  44.826 -33.948  0.00  0.00    +0.000 A 
ATOM     11  O2  UNL     1      -8.020  44.155 -33.390  0.00  0.00    +0.000 OA
ENDROOT
BRANCH   1  17
ATOM     12  C1  UNL     1      -4.398  43.764 -33.005  0.00  0.00    +0.000 A 
ATOM     13  C2  UNL     1      -3.472  42.933 -32.365  0.00  0.00    +0.000 A 
ATOM     14  C3  UNL     1      -3.879  42.091 -31.326  0.00  0.00    +0.000 A 
ATOM     15  C4  UNL     1      -5.217  42.082 -30.929  0.00  0.00    +0.000 A 
ATOM     16  C5  UNL     1      -6.146  42.909 -31.564  0.00  0.00    +0.000 A 
ATOM     17  C6  UNL     1      -5.756  43.767 -32.614  0.00  0.00    +0.000 A 
BRANCH  14  18
ATOM     18  O5  UNL     1      -2.965  41.260 -30.683  0.00  0.00    +0.000 OA
ATOM     19  H10 UNL     1      -2.496  41.546 -29.831  0.00  0.00    +0.000 HD
ENDBRANCH  14  18
ENDBRANCH   1  17
BRANCH   8  20
ATOM     20  O3  UNL     1     -12.594  44.235 -34.655  0.00  0.00    +0.000 OA
ATOM     21  H8  UNL     1     -13.289  44.493 -35.345  0.00  0.00    +0.000 HD
ENDBRANCH   8  20
BRANCH   6  22
ATOM     22  O4  UNL     1      -9.909  48.096 -35.590  0.00  0.00    +0.000 OA
ATOM     23  H9  UNL     1     -10.041  48.342 -36.557  0.00  0.00    +0.000 HD
ENDBRANCH   6  22
TORSDOF 4
ENDMDL
