MODEL 1
REMARK VINA RESULT:      -6.7      0.000      0.000
REMARK  Name = .\Apigenin.pdb
REMARK  4 active torsions:
REMARK  status: ('A' for Active; 'I' for Inactive)
REMARK    1  A    between atoms: C3_3  and  O5_20
REMARK    2  A    between atoms: C6_6  and  C7_7
REMARK    3  A    between atoms: C11_12  and  O4_19
REMARK    4  A    between atoms: C13_14  and  O3_18
REMARK                            x       y       z     vdW  Elec       q    Type
REMARK                         _______ _______ _______ _____ _____    ______ ____
ROOT
ATOM      1  C7  UNL     1      -3.004  72.273 110.401  0.00  0.00    +0.000 A 
ATOM      2  C8  UNL     1      -1.642  71.978 110.569  0.00  0.00    +0.000 A 
ATOM      3  C9  UNL     1      -1.245  70.676 110.879  0.00  0.00    +0.000 A 
ATOM      4  O1  UNL     1      -0.016  70.454 111.022  0.00  0.00    +0.000 OA
ATOM      5  C10 UNL     1      -2.217  69.656 111.024  0.00  0.00    +0.000 A 
ATOM      6  C11 UNL     1      -1.936  68.288 111.340  0.00  0.00    +0.000 A 
ATOM      7  C12 UNL     1      -2.993  67.377 111.454  0.00  0.00    +0.000 A 
ATOM      8  C13 UNL     1      -4.317  67.776 111.266  0.00  0.00    +0.000 A 
ATOM      9  C14 UNL     1      -4.601  69.104 110.959  0.00  0.00    +0.000 A 
ATOM     10  C15 UNL     1      -3.571  70.039 110.837  0.00  0.00    +0.000 A 
ATOM     11  O2  UNL     1      -3.892  71.294 110.543  0.00  0.00    +0.000 OA
ENDROOT
BRANCH   1  17
ATOM     12  C1  UNL     1      -4.885  73.944 109.951  0.00  0.00    +0.000 A 
ATOM     13  C2  UNL     1      -5.307  75.240 109.637  0.00  0.00    +0.000 A 
ATOM     14  C3  UNL     1      -4.370  76.258 109.432  0.00  0.00    +0.000 A 
ATOM     15  C4  UNL     1      -3.008  75.974 109.542  0.00  0.00    +0.000 A 
ATOM     16  C5  UNL     1      -2.580  74.682 109.856  0.00  0.00    +0.000 A 
ATOM     17  C6  UNL     1      -3.509  73.641 110.067  0.00  0.00    +0.000 A 
BRANCH  14  18
ATOM     18  O5  UNL     1      -4.781  77.551 109.118  0.00  0.00    +0.000 OA
ATOM     19  H10 UNL     1      -5.255  78.135 109.796  0.00  0.00    +0.000 HD
ENDBRANCH  14  18
ENDBRANCH   1  17
BRANCH   8  20
ATOM     20  O3  UNL     1      -5.360  66.860 111.383  0.00  0.00    +0.000 OA
ATOM     21  H8  UNL     1      -5.951  66.624 110.594  0.00  0.00    +0.000 HD
ENDBRANCH   8  20
BRANCH   6  22
ATOM     22  O4  UNL     1      -0.654  67.768 111.550  0.00  0.00    +0.000 OA
ATOM     23  H9  UNL     1      -0.191  67.660 112.437  0.00  0.00    +0.000 HD
ENDBRANCH   6  22
TORSDOF 4
ENDMDL
MODEL 2
REMARK VINA RESULT:      -6.5      1.251      2.837
REMARK  Name = .\Apigenin.pdb
REMARK  4 active torsions:
REMARK  status: ('A' for Active; 'I' for Inactive)
REMARK    1  A    between atoms: C3_3  and  O5_20
REMARK    2  A    between atoms: C6_6  and  C7_7
REMARK    3  A    between atoms: C11_12  and  O4_19
REMARK    4  A    between atoms: C13_14  and  O3_18
REMARK                            x       y       z     vdW  Elec       q    Type
REMARK                         _______ _______ _______ _____ _____    ______ ____
ROOT
ATOM      1  C7  UNL     1      -3.241  71.971 110.397  0.00  0.00    +0.000 A 
ATOM      2  C8  UNL     1      -4.170  70.973 110.730  0.00  0.00    +0.000 A 
ATOM      3  C9  UNL     1      -3.732  69.674 110.994  0.00  0.00    +0.000 A 
ATOM      4  O1  UNL     1      -4.597  68.811 111.288  0.00  0.00    +0.000 OA
ATOM      5  C10 UNL     1      -2.352  69.365 110.925  0.00  0.00    +0.000 A 
ATOM      6  C11 UNL     1      -1.783  68.075 111.173  0.00  0.00    +0.000 A 
ATOM      7  C12 UNL     1      -0.397  67.903 111.070  0.00  0.00    +0.000 A 
ATOM      8  C13 UNL     1       0.442  68.967 110.731  0.00  0.00    +0.000 A 
ATOM      9  C14 UNL     1      -0.102  70.225 110.487  0.00  0.00    +0.000 A 
ATOM     10  C15 UNL     1      -1.480  70.431 110.581  0.00  0.00    +0.000 A 
ATOM     11  O2  UNL     1      -1.952  71.650 110.340  0.00  0.00    +0.000 OA
ENDROOT
BRANCH   1  17
ATOM     12  C1  UNL     1      -4.974  73.803 109.986  0.00  0.00    +0.000 A 
ATOM     13  C2  UNL     1      -5.285  75.138 109.707  0.00  0.00    +0.000 A 
ATOM     14  C3  UNL     1      -4.266  76.081 109.538  0.00  0.00    +0.000 A 
ATOM     15  C4  UNL     1      -2.933  75.683 109.648  0.00  0.00    +0.000 A 
ATOM     16  C5  UNL     1      -2.616  74.351 109.926  0.00  0.00    +0.000 A 
ATOM     17  C6  UNL     1      -3.629  73.385 110.101  0.00  0.00    +0.000 A 
BRANCH  14  18
ATOM     18  O5  UNL     1      -4.567  77.412 109.260  0.00  0.00    +0.000 OA
ATOM     19  H10 UNL     1      -5.523  77.746 109.239  0.00  0.00    +0.000 HD
ENDBRANCH  14  18
ENDBRANCH   1  17
BRANCH   8  20
ATOM     20  O3  UNL     1       1.819  68.782 110.632  0.00  0.00    +0.000 OA
ATOM     21  H8  UNL     1       2.427  68.885 111.435  0.00  0.00    +0.000 HD
ENDBRANCH   8  20
BRANCH   6  22
ATOM     22  O4  UNL     1      -2.516  66.935 111.520  0.00  0.00    +0.000 OA
ATOM     23  H9  UNL     1      -2.192  66.162 112.075  0.00  0.00    +0.000 HD
ENDBRANCH   6  22
TORSDOF 4
ENDMDL
MODEL 3
REMARK VINA RESULT:      -6.3      1.233      3.033
REMARK  Name = .\Apigenin.pdb
REMARK  4 active torsions:
REMARK  status: ('A' for Active; 'I' for Inactive)
REMARK    1  A    between atoms: C3_3  and  O5_20
REMARK    2  A    between atoms: C6_6  and  C7_7
REMARK    3  A    between atoms: C11_12  and  O4_19
REMARK    4  A    between atoms: C13_14  and  O3_18
REMARK                            x       y       z     vdW  Elec       q    Type
REMARK                         _______ _______ _______ _____ _____    ______ ____
ROOT
ATOM      1  C7  UNL     1      -3.219  72.026 110.429  0.00  0.00    +0.000 A 
ATOM      2  C8  UNL     1      -4.164  71.028 110.715  0.00  0.00    +0.000 A 
ATOM      3  C9  UNL     1      -3.738  69.736 111.029  0.00  0.00    +0.000 A 
ATOM      4  O1  UNL     1      -4.616  68.872 111.278  0.00  0.00    +0.000 OA
ATOM      5  C10 UNL     1      -2.355  69.434 111.055  0.00  0.00    +0.000 A 
ATOM      6  C11 UNL     1      -1.796  68.152 111.361  0.00  0.00    +0.000 A 
ATOM      7  C12 UNL     1      -0.405  67.987 111.353  0.00  0.00    +0.000 A 
ATOM      8  C13 UNL     1       0.448  69.051 111.054  0.00  0.00    +0.000 A 
ATOM      9  C14 UNL     1      -0.085  70.301 110.755  0.00  0.00    +0.000 A 
ATOM     10  C15 UNL     1      -1.467  70.501 110.754  0.00  0.00    +0.000 A 
ATOM     11  O2  UNL     1      -1.928  71.712 110.463  0.00  0.00    +0.000 OA
ENDROOT
BRANCH   1  17
ATOM     12  C1  UNL     1      -2.644  74.416 109.730  0.00  0.00    +0.000 A 
ATOM     13  C2  UNL     1      -3.045  75.719 109.418  0.00  0.00    +0.000 A 
ATOM     14  C3  UNL     1      -4.399  76.068 109.454  0.00  0.00    +0.000 A 
ATOM     15  C4  UNL     1      -5.350  75.109 109.804  0.00  0.00    +0.000 A 
ATOM     16  C5  UNL     1      -4.955  73.806 110.117  0.00  0.00    +0.000 A 
ATOM     17  C6  UNL     1      -3.595  73.433 110.086  0.00  0.00    +0.000 A 
BRANCH  14  18
ATOM     18  O5  UNL     1      -4.808  77.363 109.145  0.00  0.00    +0.000 OA
ATOM     19  H10 UNL     1      -4.163  78.144 109.176  0.00  0.00    +0.000 HD
ENDBRANCH  14  18
ENDBRANCH   1  17
BRANCH   8  20
ATOM     20  O3  UNL     1       1.830  68.874 111.050  0.00  0.00    +0.000 OA
ATOM     21  H8  UNL     1       2.296  68.317 111.756  0.00  0.00    +0.000 HD
ENDBRANCH   8  20
BRANCH   6  22
ATOM     22  O4  UNL     1      -2.545  67.013 111.676  0.00  0.00    +0.000 OA
ATOM     23  H9  UNL     1      -2.467  66.108 111.243  0.00  0.00    +0.000 HD
ENDBRANCH   6  22
TORSDOF 4
ENDMDL
MODEL 4
REMARK VINA RESULT:      -6.1      1.739      1.847
REMARK  Name = .\Apigenin.pdb
REMARK  4 active torsions:
REMARK  status: ('A' for Active; 'I' for Inactive)
REMARK    1  A    between atoms: C3_3  and  O5_20
REMARK    2  A    between atoms: C6_6  and  C7_7
REMARK    3  A    between atoms: C11_12  and  O4_19
REMARK    4  A    between atoms: C13_14  and  O3_18
REMARK                            x       y       z     vdW  Elec       q    Type
REMARK                         _______ _______ _______ _____ _____    ______ ____
ROOT
ATOM      1  C7  UNL     1      -2.754  72.702 110.545  0.00  0.00    +0.000 A 
ATOM      2  C8  UNL     1      -1.886  72.850 111.639  0.00  0.00    +0.000 A 
ATOM      3  C9  UNL     1      -1.144  71.757 112.091  0.00  0.00    +0.000 A 
ATOM      4  O1  UNL     1      -0.380  71.932 113.074  0.00  0.00    +0.000 OA
ATOM      5  C10 UNL     1      -1.269  70.502 111.447  0.00  0.00    +0.000 A 
ATOM      6  C11 UNL     1      -0.564  69.312 111.816  0.00  0.00    +0.000 A 
ATOM      7  C12 UNL     1      -0.779  68.132 111.093  0.00  0.00    +0.000 A 
ATOM      8  C13 UNL     1      -1.667  68.094 110.016  0.00  0.00    +0.000 A 
ATOM      9  C14 UNL     1      -2.357  69.246 109.650  0.00  0.00    +0.000 A 
ATOM     10  C15 UNL     1      -2.167  70.439 110.349  0.00  0.00    +0.000 A 
ATOM     11  O2  UNL     1      -2.849  71.512 109.961  0.00  0.00    +0.000 OA
ENDROOT
BRANCH   1  17
ATOM     12  C1  UNL     1      -4.919  74.052 110.396  0.00  0.00    +0.000 A 
ATOM     13  C2  UNL     1      -5.651  75.115 109.857  0.00  0.00    +0.000 A 
ATOM     14  C3  UNL     1      -5.068  75.969 108.915  0.00  0.00    +0.000 A 
ATOM     15  C4  UNL     1      -3.749  75.755 108.515  0.00  0.00    +0.000 A 
ATOM     16  C5  UNL     1      -3.012  74.696 109.049  0.00  0.00    +0.000 A 
ATOM     17  C6  UNL     1      -3.582  73.824 110.001  0.00  0.00    +0.000 A 
BRANCH  14  18
ATOM     18  O5  UNL     1      -5.790  77.029 108.372  0.00  0.00    +0.000 OA
ATOM     19  H10 UNL     1      -5.508  77.473 107.506  0.00  0.00    +0.000 HD
ENDBRANCH  14  18
ENDBRANCH   1  17
BRANCH   8  20
ATOM     20  O3  UNL     1      -1.872  66.914 109.306  0.00  0.00    +0.000 OA
ATOM     21  H8  UNL     1      -2.021  66.030 109.776  0.00  0.00    +0.000 HD
ENDBRANCH   8  20
BRANCH   6  22
ATOM     22  O4  UNL     1       0.350  69.225 112.872  0.00  0.00    +0.000 OA
ATOM     23  H9  UNL     1       1.159  69.806 113.012  0.00  0.00    +0.000 HD
ENDBRANCH   6  22
TORSDOF 4
ENDMDL
MODEL 5
REMARK VINA RESULT:      -5.9      2.431      3.166
REMARK  Name = .\Apigenin.pdb
REMARK  4 active torsions:
REMARK  status: ('A' for Active; 'I' for Inactive)
REMARK    1  A    between atoms: C3_3  and  O5_20
REMARK    2  A    between atoms: C6_6  and  C7_7
REMARK    3  A    between atoms: C11_12  and  O4_19
REMARK    4  A    between atoms: C13_14  and  O3_18
REMARK                            x       y       z     vdW  Elec       q    Type
REMARK                         _______ _______ _______ _____ _____    ______ ____
ROOT
ATOM      1  C7  UNL     1      -2.646  73.696 111.209  0.00  0.00    +0.000 A 
ATOM      2  C8  UNL     1      -2.213  74.041 112.499  0.00  0.00    +0.000 A 
ATOM      3  C9  UNL     1      -1.341  73.197 113.189  0.00  0.00    +0.000 A 
ATOM      4  O1  UNL     1      -0.978  73.542 114.341  0.00  0.00    +0.000 OA
ATOM      5  C10 UNL     1      -0.897  71.994 112.587  0.00  0.00    +0.000 A 
ATOM      6  C11 UNL     1      -0.006  71.050 113.191  0.00  0.00    +0.000 A 
ATOM      7  C12 UNL     1       0.356  69.896 112.485  0.00  0.00    +0.000 A 
ATOM      8  C13 UNL     1      -0.134  69.648 111.201  0.00  0.00    +0.000 A 
ATOM      9  C14 UNL     1      -1.001  70.560 110.605  0.00  0.00    +0.000 A 
ATOM     10  C15 UNL     1      -1.383  71.721 111.281  0.00  0.00    +0.000 A 
ATOM     11  O2  UNL     1      -2.211  72.561 110.670  0.00  0.00    +0.000 OA
ENDROOT
BRANCH   1  17
ATOM     12  C1  UNL     1      -4.981  74.383 110.430  0.00  0.00    +0.000 A 
ATOM     13  C2  UNL     1      -5.810  75.204 109.658  0.00  0.00    +0.000 A 
ATOM     14  C3  UNL     1      -5.259  76.202 108.848  0.00  0.00    +0.000 A 
ATOM     15  C4  UNL     1      -3.876  76.376 108.812  0.00  0.00    +0.000 A 
ATOM     16  C5  UNL     1      -3.042  75.559 109.580  0.00  0.00    +0.000 A 
ATOM     17  C6  UNL     1      -3.578  74.547 110.404  0.00  0.00    +0.000 A 
BRANCH  14  18
ATOM     18  O5  UNL     1      -6.077  77.024 108.076  0.00  0.00    +0.000 OA
ATOM     19  H10 UNL     1      -6.164  76.895 107.075  0.00  0.00    +0.000 HD
ENDBRANCH  14  18
ENDBRANCH   1  17
BRANCH   8  20
ATOM     20  O3  UNL     1       0.234  68.497 110.510  0.00  0.00    +0.000 OA
ATOM     21  H8  UNL     1       1.189  68.338 110.213  0.00  0.00    +0.000 HD
ENDBRANCH   8  20
BRANCH   6  22
ATOM     22  O4  UNL     1       0.550  71.185 114.468  0.00  0.00    +0.000 OA
ATOM     23  H9  UNL     1       0.275  71.850 115.172  0.00  0.00    +0.000 HD
ENDBRANCH   6  22
TORSDOF 4
ENDMDL
MODEL 6
REMARK VINA RESULT:      -5.8      2.388      2.942
REMARK  Name = .\Apigenin.pdb
REMARK  4 active torsions:
REMARK  status: ('A' for Active; 'I' for Inactive)
REMARK    1  A    between atoms: C3_3  and  O5_20
REMARK    2  A    between atoms: C6_6  and  C7_7
REMARK    3  A    between atoms: C11_12  and  O4_19
REMARK    4  A    between atoms: C13_14  and  O3_18
REMARK                            x       y       z     vdW  Elec       q    Type
REMARK                         _______ _______ _______ _____ _____    ______ ____
ROOT
ATOM      1  C7  UNL     1      -1.980  71.993 110.915  0.00  0.00    +0.000 A 
ATOM      2  C8  UNL     1      -1.292  72.074 112.136  0.00  0.00    +0.000 A 
ATOM      3  C9  UNL     1      -0.387  71.073 112.492  0.00  0.00    +0.000 A 
ATOM      4  O1  UNL     1       0.207  71.183 113.595  0.00  0.00    +0.000 OA
ATOM      5  C10 UNL     1      -0.165  69.977 111.623  0.00  0.00    +0.000 A 
ATOM      6  C11 UNL     1       0.734  68.893 111.877  0.00  0.00    +0.000 A 
ATOM      7  C12 UNL     1       0.861  67.868 110.930  0.00  0.00    +0.000 A 
ATOM      8  C13 UNL     1       0.128  67.885 109.742  0.00  0.00    +0.000 A 
ATOM      9  C14 UNL     1      -0.749  68.935 109.487  0.00  0.00    +0.000 A 
ATOM     10  C15 UNL     1      -0.901  69.972 110.409  0.00  0.00    +0.000 A 
ATOM     11  O2  UNL     1      -1.750  70.953 110.120  0.00  0.00    +0.000 OA
ENDROOT
BRANCH   1  17
ATOM     12  C1  UNL     1      -2.683  74.409 110.470  0.00  0.00    +0.000 A 
ATOM     13  C2  UNL     1      -3.638  75.334 110.034  0.00  0.00    +0.000 A 
ATOM     14  C3  UNL     1      -4.888  74.900 109.582  0.00  0.00    +0.000 A 
ATOM     15  C4  UNL     1      -5.180  73.535 109.567  0.00  0.00    +0.000 A 
ATOM     16  C5  UNL     1      -4.231  72.606 110.001  0.00  0.00    +0.000 A 
ATOM     17  C6  UNL     1      -2.964  73.024 110.460  0.00  0.00    +0.000 A 
BRANCH  14  18
ATOM     18  O5  UNL     1      -5.845  75.813 109.147  0.00  0.00    +0.000 OA
ATOM     19  H10 UNL     1      -6.832  75.582 109.137  0.00  0.00    +0.000 HD
ENDBRANCH  14  18
ENDBRANCH   1  17
BRANCH   8  20
ATOM     20  O3  UNL     1       0.263  66.860 108.809  0.00  0.00    +0.000 OA
ATOM     21  H8  UNL     1       0.061  67.005 107.827  0.00  0.00    +0.000 HD
ENDBRANCH   8  20
BRANCH   6  22
ATOM     22  O4  UNL     1       1.522  68.764 113.026  0.00  0.00    +0.000 OA
ATOM     23  H9  UNL     1       1.358  69.207 113.914  0.00  0.00    +0.000 HD
ENDBRANCH   6  22
TORSDOF 4
ENDMDL
MODEL 7
REMARK VINA RESULT:      -5.8      1.857      3.269
REMARK  Name = .\Apigenin.pdb
REMARK  4 active torsions:
REMARK  status: ('A' for Active; 'I' for Inactive)
REMARK    1  A    between atoms: C3_3  and  O5_20
REMARK    2  A    between atoms: C6_6  and  C7_7
REMARK    3  A    between atoms: C11_12  and  O4_19
REMARK    4  A    between atoms: C13_14  and  O3_18
REMARK                            x       y       z     vdW  Elec       q    Type
REMARK                         _______ _______ _______ _____ _____    ______ ____
ROOT
ATOM      1  C7  UNL     1      -2.872  72.543 110.495  0.00  0.00    +0.000 A 
ATOM      2  C8  UNL     1      -3.074  71.233 110.034  0.00  0.00    +0.000 A 
ATOM      3  C9  UNL     1      -2.309  70.187 110.553  0.00  0.00    +0.000 A 
ATOM      4  O1  UNL     1      -2.522  69.029 110.113  0.00  0.00    +0.000 OA
ATOM      5  C10 UNL     1      -1.329  70.449 111.540  0.00  0.00    +0.000 A 
ATOM      6  C11 UNL     1      -0.484  69.465 112.146  0.00  0.00    +0.000 A 
ATOM      7  C12 UNL     1       0.447  69.859 113.115  0.00  0.00    +0.000 A 
ATOM      8  C13 UNL     1       0.568  71.195 113.503  0.00  0.00    +0.000 A 
ATOM      9  C14 UNL     1      -0.249  72.160 112.919  0.00  0.00    +0.000 A 
ATOM     10  C15 UNL     1      -1.188  71.802 111.950  0.00  0.00    +0.000 A 
ATOM     11  O2  UNL     1      -1.945  72.758 111.423  0.00  0.00    +0.000 OA
ENDROOT
BRANCH   1  17
ATOM     12  C1  UNL     1      -4.978  73.988 110.395  0.00  0.00    +0.000 A 
ATOM     13  C2  UNL     1      -5.664  75.099 109.895  0.00  0.00    +0.000 A 
ATOM     14  C3  UNL     1      -5.044  75.961 108.983  0.00  0.00    +0.000 A 
ATOM     15  C4  UNL     1      -3.735  75.706 108.574  0.00  0.00    +0.000 A 
ATOM     16  C5  UNL     1      -3.044  74.598 109.070  0.00  0.00    +0.000 A 
ATOM     17  C6  UNL     1      -3.651  73.717 109.991  0.00  0.00    +0.000 A 
BRANCH  14  18
ATOM     18  O5  UNL     1      -5.720  77.069 108.479  0.00  0.00    +0.000 OA
ATOM     19  H10 UNL     1      -5.235  77.933 108.264  0.00  0.00    +0.000 HD
ENDBRANCH  14  18
ENDBRANCH   1  17
BRANCH   8  20
ATOM     20  O3  UNL     1       1.498  71.574 114.467  0.00  0.00    +0.000 OA
ATOM     21  H8  UNL     1       1.944  70.894 115.071  0.00  0.00    +0.000 HD
ENDBRANCH   8  20
BRANCH   6  22
ATOM     22  O4  UNL     1      -0.510  68.100 111.843  0.00  0.00    +0.000 OA
ATOM     23  H9  UNL     1      -1.290  67.586 111.468  0.00  0.00    +0.000 HD
ENDBRANCH   6  22
TORSDOF 4
ENDMDL
MODEL 8
REMARK VINA RESULT:      -5.4      2.111      7.097
REMARK  Name = .\Apigenin.pdb
REMARK  4 active torsions:
REMARK  status: ('A' for Active; 'I' for Inactive)
REMARK    1  A    between atoms: C3_3  and  O5_20
REMARK    2  A    between atoms: C6_6  and  C7_7
REMARK    3  A    between atoms: C11_12  and  O4_19
REMARK    4  A    between atoms: C13_14  and  O3_18
REMARK                            x       y       z     vdW  Elec       q    Type
REMARK                         _______ _______ _______ _____ _____    ______ ____
ROOT
ATOM      1  C7  UNL     1      -2.456  71.976 110.227  0.00  0.00    +0.000 A 
ATOM      2  C8  UNL     1      -3.798  71.569 110.281  0.00  0.00    +0.000 A 
ATOM      3  C9  UNL     1      -4.817  72.503 110.085  0.00  0.00    +0.000 A 
ATOM      4  O1  UNL     1      -6.005  72.097 110.142  0.00  0.00    +0.000 OA
ATOM      5  C10 UNL     1      -4.495  73.859 109.833  0.00  0.00    +0.000 A 
ATOM      6  C11 UNL     1      -5.447  74.906 109.617  0.00  0.00    +0.000 A 
ATOM      7  C12 UNL     1      -4.994  76.210 109.378  0.00  0.00    +0.000 A 
ATOM      8  C13 UNL     1      -3.630  76.508 109.344  0.00  0.00    +0.000 A 
ATOM      9  C14 UNL     1      -2.697  75.497 109.553  0.00  0.00    +0.000 A 
ATOM     10  C15 UNL     1      -3.114  74.187 109.795  0.00  0.00    +0.000 A 
ATOM     11  O2  UNL     1      -2.185  73.256 109.988  0.00  0.00    +0.000 OA
ENDROOT
BRANCH   1  17
ATOM     12  C1  UNL     1      -0.013  71.292 109.920  0.00  0.00    +0.000 A 
ATOM     13  C2  UNL     1       1.028  70.382 110.132  0.00  0.00    +0.000 A 
ATOM     14  C3  UNL     1       0.801  69.203 110.850  0.00  0.00    +0.000 A 
ATOM     15  C4  UNL     1      -0.472  68.938 111.354  0.00  0.00    +0.000 A 
ATOM     16  C5  UNL     1      -1.516  69.843 111.146  0.00  0.00    +0.000 A 
ATOM     17  C6  UNL     1      -1.307  71.038 110.425  0.00  0.00    +0.000 A 
BRANCH  14  18
ATOM     18  O5  UNL     1       1.831  68.291 111.065  0.00  0.00    +0.000 OA
ATOM     19  H10 UNL     1       2.791  68.510 110.824  0.00  0.00    +0.000 HD
ENDBRANCH  14  18
ENDBRANCH   1  17
BRANCH   8  20
ATOM     20  O3  UNL     1      -3.193  77.809 109.105  0.00  0.00    +0.000 OA
ATOM     21  H8  UNL     1      -2.340  78.167 109.517  0.00  0.00    +0.000 HD
ENDBRANCH   8  20
BRANCH   6  22
ATOM     22  O4  UNL     1      -6.835  74.733 109.626  0.00  0.00    +0.000 OA
ATOM     23  H9  UNL     1      -7.527  75.443 109.454  0.00  0.00    +0.000 HD
ENDBRANCH   6  22
TORSDOF 4
ENDMDL
MODEL 9
REMARK VINA RESULT:      -5.4      1.624      7.297
REMARK  Name = .\Apigenin.pdb
REMARK  4 active torsions:
REMARK  status: ('A' for Active; 'I' for Inactive)
REMARK    1  A    between atoms: C3_3  and  O5_20
REMARK    2  A    between atoms: C6_6  and  C7_7
REMARK    3  A    between atoms: C11_12  and  O4_19
REMARK    4  A    between atoms: C13_14  and  O3_18
REMARK                            x       y       z     vdW  Elec       q    Type
REMARK                         _______ _______ _______ _____ _____    ______ ____
ROOT
ATOM      1  C7  UNL     1      -3.747  71.798 110.321  0.00  0.00    +0.000 A 
ATOM      2  C8  UNL     1      -5.143  71.893 110.205  0.00  0.00    +0.000 A 
ATOM      3  C9  UNL     1      -5.734  73.117 109.890  0.00  0.00    +0.000 A 
ATOM      4  O1  UNL     1      -6.987  73.158 109.796  0.00  0.00    +0.000 OA
ATOM      5  C10 UNL     1      -4.926  74.262 109.690  0.00  0.00    +0.000 A 
ATOM      6  C11 UNL     1      -5.412  75.569 109.364  0.00  0.00    +0.000 A 
ATOM      7  C12 UNL     1      -4.502  76.619 109.191  0.00  0.00    +0.000 A 
ATOM      8  C13 UNL     1      -3.127  76.417 109.330  0.00  0.00    +0.000 A 
ATOM      9  C14 UNL     1      -2.644  75.150 109.646  0.00  0.00    +0.000 A 
ATOM     10  C15 UNL     1      -3.524  74.081 109.826  0.00  0.00    +0.000 A 
ATOM     11  O2  UNL     1      -3.015  72.891 110.127  0.00  0.00    +0.000 OA
ENDROOT
BRANCH   1  17
ATOM     12  C1  UNL     1      -1.633  70.390 110.595  0.00  0.00    +0.000 A 
ATOM     13  C2  UNL     1      -1.017  69.175 110.916  0.00  0.00    +0.000 A 
ATOM     14  C3  UNL     1      -1.787  68.073 111.301  0.00  0.00    +0.000 A 
ATOM     15  C4  UNL     1      -3.176  68.190 111.364  0.00  0.00    +0.000 A 
ATOM     16  C5  UNL     1      -3.797  69.400 111.044  0.00  0.00    +0.000 A 
ATOM     17  C6  UNL     1      -3.038  70.524 110.654  0.00  0.00    +0.000 A 
BRANCH  14  18
ATOM     18  O5  UNL     1      -1.183  66.860 111.622  0.00  0.00    +0.000 OA
ATOM     19  H10 UNL     1      -0.181  66.788 111.763  0.00  0.00    +0.000 HD
ENDBRANCH  14  18
ENDBRANCH   1  17
BRANCH   8  20
ATOM     20  O3  UNL     1      -2.233  77.470 109.155  0.00  0.00    +0.000 OA
ATOM     21  H8  UNL     1      -1.771  77.634 108.269  0.00  0.00    +0.000 HD
ENDBRANCH   8  20
BRANCH   6  22
ATOM     22  O4  UNL     1      -6.762  75.896 109.199  0.00  0.00    +0.000 OA
ATOM     23  H9  UNL     1      -7.357  75.612 108.439  0.00  0.00    +0.000 HD
ENDBRANCH   6  22
TORSDOF 4
ENDMDL
