MODEL 1
REMARK VINA RESULT:      -5.2      0.000      0.000
REMARK  Name = .\Apigenin.pdb
REMARK  4 active torsions:
REMARK  status: ('A' for Active; 'I' for Inactive)
REMARK    1  A    between atoms: C3_3  and  O5_20
REMARK    2  A    between atoms: C6_6  and  C7_7
REMARK    3  A    between atoms: C11_12  and  O4_19
REMARK    4  A    between atoms: C13_14  and  O3_18
REMARK                            x       y       z     vdW  Elec       q    Type
REMARK                         _______ _______ _______ _____ _____    ______ ____
ROOT
ATOM      1  C7  UNL     1     -15.850  80.567  42.285  0.00  0.00    +0.000 A 
ATOM      2  C8  UNL     1     -15.546  79.289  42.778  0.00  0.00    +0.000 A 
ATOM      3  C9  UNL     1     -15.923  78.935  44.075  0.00  0.00    +0.000 A 
ATOM      4  O1  UNL     1     -15.631  77.780  44.477  0.00  0.00    +0.000 OA
ATOM      5  C10 UNL     1     -16.609  79.866  44.891  0.00  0.00    +0.000 A 
ATOM      6  C11 UNL     1     -17.046  79.622  46.232  0.00  0.00    +0.000 A 
ATOM      7  C12 UNL     1     -17.717  80.633  46.932  0.00  0.00    +0.000 A 
ATOM      8  C13 UNL     1     -17.970  81.875  46.346  0.00  0.00    +0.000 A 
ATOM      9  C14 UNL     1     -17.549  82.121  45.042  0.00  0.00    +0.000 A 
ATOM     10  C15 UNL     1     -16.877  81.137  44.316  0.00  0.00    +0.000 A 
ATOM     11  O2  UNL     1     -16.495  81.420  43.075  0.00  0.00    +0.000 OA
ENDROOT
BRANCH   1  17
ATOM     12  C1  UNL     1     -14.151  81.297  40.521  0.00  0.00    +0.000 A 
ATOM     13  C2  UNL     1     -13.858  81.721  39.221  0.00  0.00    +0.000 A 
ATOM     14  C3  UNL     1     -14.883  81.878  38.282  0.00  0.00    +0.000 A 
ATOM     15  C4  UNL     1     -16.202  81.611  38.649  0.00  0.00    +0.000 A 
ATOM     16  C5  UNL     1     -16.501  81.188  39.947  0.00  0.00    +0.000 A 
ATOM     17  C6  UNL     1     -15.482  81.022  40.908  0.00  0.00    +0.000 A 
BRANCH  14  18
ATOM     18  O5  UNL     1     -14.601  82.300  36.985  0.00  0.00    +0.000 OA
ATOM     19  H10 UNL     1     -13.654  82.513  36.691  0.00  0.00    +0.000 HD
ENDBRANCH  14  18
ENDBRANCH   1  17
BRANCH   8  20
ATOM     20  O3  UNL     1     -18.639  82.871  47.053  0.00  0.00    +0.000 OA
ATOM     21  H8  UNL     1     -18.180  83.406  47.780  0.00  0.00    +0.000 HD
ENDBRANCH   8  20
BRANCH   6  22
ATOM     22  O4  UNL     1     -16.853  78.423  46.926  0.00  0.00    +0.000 OA
ATOM     23  H9  UNL     1     -16.192  78.261  47.667  0.00  0.00    +0.000 HD
ENDBRANCH   6  22
TORSDOF 4
ENDMDL
MODEL 2
REMARK VINA RESULT:      -4.4      1.936      2.452
REMARK  Name = .\Apigenin.pdb
REMARK  4 active torsions:
REMARK  status: ('A' for Active; 'I' for Inactive)
REMARK    1  A    between atoms: C3_3  and  O5_20
REMARK    2  A    between atoms: C6_6  and  C7_7
REMARK    3  A    between atoms: C11_12  and  O4_19
REMARK    4  A    between atoms: C13_14  and  O3_18
REMARK                            x       y       z     vdW  Elec       q    Type
REMARK                         _______ _______ _______ _____ _____    ______ ____
ROOT
ATOM      1  C7  UNL     1     -17.189  80.281  42.303  0.00  0.00    +0.000 A 
ATOM      2  C8  UNL     1     -17.899  79.197  42.843  0.00  0.00    +0.000 A 
ATOM      3  C9  UNL     1     -17.739  78.862  44.189  0.00  0.00    +0.000 A 
ATOM      4  O1  UNL     1     -18.393  77.884  44.633  0.00  0.00    +0.000 OA
ATOM      5  C10 UNL     1     -16.862  79.615  45.006  0.00  0.00    +0.000 A 
ATOM      6  C11 UNL     1     -16.614  79.371  46.395  0.00  0.00    +0.000 A 
ATOM      7  C12 UNL     1     -15.720  80.194  47.090  0.00  0.00    +0.000 A 
ATOM      8  C13 UNL     1     -15.064  81.250  46.454  0.00  0.00    +0.000 A 
ATOM      9  C14 UNL     1     -15.297  81.496  45.104  0.00  0.00    +0.000 A 
ATOM     10  C15 UNL     1     -16.183  80.695  44.381  0.00  0.00    +0.000 A 
ATOM     11  O2  UNL     1     -16.373  80.969  43.095  0.00  0.00    +0.000 OA
ENDROOT
BRANCH   1  17
ATOM     12  C1  UNL     1     -18.524  80.664  40.157  0.00  0.00    +0.000 A 
ATOM     13  C2  UNL     1     -18.581  81.069  38.820  0.00  0.00    +0.000 A 
ATOM     14  C3  UNL     1     -17.428  81.521  38.169  0.00  0.00    +0.000 A 
ATOM     15  C4  UNL     1     -16.218  81.565  38.861  0.00  0.00    +0.000 A 
ATOM     16  C5  UNL     1     -16.154  81.161  40.197  0.00  0.00    +0.000 A 
ATOM     17  C6  UNL     1     -17.306  80.703  40.872  0.00  0.00    +0.000 A 
BRANCH  14  18
ATOM     18  O5  UNL     1     -17.475  81.927  36.838  0.00  0.00    +0.000 OA
ATOM     19  H10 UNL     1     -18.312  81.810  36.277  0.00  0.00    +0.000 HD
ENDBRANCH  14  18
ENDBRANCH   1  17
BRANCH   8  20
ATOM     20  O3  UNL     1     -14.176  82.061  47.157  0.00  0.00    +0.000 OA
ATOM     21  H8  UNL     1     -14.233  82.164  48.164  0.00  0.00    +0.000 HD
ENDBRANCH   8  20
BRANCH   6  22
ATOM     22  O4  UNL     1     -17.209  78.347  47.140  0.00  0.00    +0.000 OA
ATOM     23  H9  UNL     1     -17.504  78.401  48.101  0.00  0.00    +0.000 HD
ENDBRANCH   6  22
TORSDOF 4
ENDMDL
MODEL 3
REMARK VINA RESULT:      -4.0      1.569      3.249
REMARK  Name = .\Apigenin.pdb
REMARK  4 active torsions:
REMARK  status: ('A' for Active; 'I' for Inactive)
REMARK    1  A    between atoms: C3_3  and  O5_20
REMARK    2  A    between atoms: C6_6  and  C7_7
REMARK    3  A    between atoms: C11_12  and  O4_19
REMARK    4  A    between atoms: C13_14  and  O3_18
REMARK                            x       y       z     vdW  Elec       q    Type
REMARK                         _______ _______ _______ _____ _____    ______ ____
ROOT
ATOM      1  C7  UNL     1     -17.089  81.635  41.511  0.00  0.00    +0.000 A 
ATOM      2  C8  UNL     1     -17.818  82.727  42.007  0.00  0.00    +0.000 A 
ATOM      3  C9  UNL     1     -17.978  82.890  43.384  0.00  0.00    +0.000 A 
ATOM      4  O1  UNL     1     -18.639  83.880  43.786  0.00  0.00    +0.000 OA
ATOM      5  C10 UNL     1     -17.406  81.953  44.278  0.00  0.00    +0.000 A 
ATOM      6  C11 UNL     1     -17.500  82.010  45.705  0.00  0.00    +0.000 A 
ATOM      7  C12 UNL     1     -16.885  81.016  46.477  0.00  0.00    +0.000 A 
ATOM      8  C13 UNL     1     -16.180  79.969  45.880  0.00  0.00    +0.000 A 
ATOM      9  C14 UNL     1     -16.083  79.904  44.493  0.00  0.00    +0.000 A 
ATOM     10  C15 UNL     1     -16.684  80.878  43.694  0.00  0.00    +0.000 A 
ATOM     11  O2  UNL     1     -16.563  80.773  42.375  0.00  0.00    +0.000 OA
ENDROOT
BRANCH   1  17
ATOM     12  C1  UNL     1     -17.814  80.725  39.235  0.00  0.00    +0.000 A 
ATOM     13  C2  UNL     1     -17.563  80.522  37.874  0.00  0.00    +0.000 A 
ATOM     14  C3  UNL     1     -16.373  80.977  37.299  0.00  0.00    +0.000 A 
ATOM     15  C4  UNL     1     -15.432  81.636  38.091  0.00  0.00    +0.000 A 
ATOM     16  C5  UNL     1     -15.676  81.843  39.451  0.00  0.00    +0.000 A 
ATOM     17  C6  UNL     1     -16.871  81.392  40.050  0.00  0.00    +0.000 A 
BRANCH  14  18
ATOM     18  O5  UNL     1     -16.114  80.778  35.945  0.00  0.00    +0.000 OA
ATOM     19  H10 UNL     1     -16.004  79.848  35.558  0.00  0.00    +0.000 HD
ENDBRANCH  14  18
ENDBRANCH   1  17
BRANCH   8  20
ATOM     20  O3  UNL     1     -15.574  78.987  46.659  0.00  0.00    +0.000 OA
ATOM     21  H8  UNL     1     -16.103  78.431  47.320  0.00  0.00    +0.000 HD
ENDBRANCH   8  20
BRANCH   6  22
ATOM     22  O4  UNL     1     -18.176  83.007  46.417  0.00  0.00    +0.000 OA
ATOM     23  H9  UNL     1     -18.418  82.984  47.394  0.00  0.00    +0.000 HD
ENDBRANCH   6  22
TORSDOF 4
ENDMDL
MODEL 4
REMARK VINA RESULT:      -3.6      2.164      2.505
REMARK  Name = .\Apigenin.pdb
REMARK  4 active torsions:
REMARK  status: ('A' for Active; 'I' for Inactive)
REMARK    1  A    between atoms: C3_3  and  O5_20
REMARK    2  A    between atoms: C6_6  and  C7_7
REMARK    3  A    between atoms: C11_12  and  O4_19
REMARK    4  A    between atoms: C13_14  and  O3_18
REMARK                            x       y       z     vdW  Elec       q    Type
REMARK                         _______ _______ _______ _____ _____    ______ ____
ROOT
ATOM      1  C7  UNL     1     -17.124  81.393  41.399  0.00  0.00    +0.000 A 
ATOM      2  C8  UNL     1     -16.314  80.371  41.917  0.00  0.00    +0.000 A 
ATOM      3  C9  UNL     1     -15.993  80.357  43.275  0.00  0.00    +0.000 A 
ATOM      4  O1  UNL     1     -15.264  79.424  43.698  0.00  0.00    +0.000 OA
ATOM      5  C10 UNL     1     -16.484  81.375  44.128  0.00  0.00    +0.000 A 
ATOM      6  C11 UNL     1     -16.225  81.470  45.533  0.00  0.00    +0.000 A 
ATOM      7  C12 UNL     1     -16.773  82.531  46.264  0.00  0.00    +0.000 A 
ATOM      8  C13 UNL     1     -17.570  83.499  45.649  0.00  0.00    +0.000 A 
ATOM      9  C14 UNL     1     -17.827  83.416  44.284  0.00  0.00    +0.000 A 
ATOM     10  C15 UNL     1     -17.296  82.371  43.525  0.00  0.00    +0.000 A 
ATOM     11  O2  UNL     1     -17.570  82.335  42.225  0.00  0.00    +0.000 OA
ENDROOT
BRANCH   1  17
ATOM     12  C1  UNL     1     -17.504  80.360  39.093  0.00  0.00    +0.000 A 
ATOM     13  C2  UNL     1     -17.877  80.491  37.751  0.00  0.00    +0.000 A 
ATOM     14  C3  UNL     1     -18.265  81.735  37.244  0.00  0.00    +0.000 A 
ATOM     15  C4  UNL     1     -18.278  82.849  38.085  0.00  0.00    +0.000 A 
ATOM     16  C5  UNL     1     -17.907  82.724  39.426  0.00  0.00    +0.000 A 
ATOM     17  C6  UNL     1     -17.513  81.478  39.957  0.00  0.00    +0.000 A 
BRANCH  14  18
ATOM     18  O5  UNL     1     -18.637  81.875  35.909  0.00  0.00    +0.000 OA
ATOM     19  H10 UNL     1     -19.101  82.712  35.574  0.00  0.00    +0.000 HD
ENDBRANCH  14  18
ENDBRANCH   1  17
BRANCH   8  20
ATOM     20  O3  UNL     1     -18.109  84.549  46.388  0.00  0.00    +0.000 OA
ATOM     21  H8  UNL     1     -18.053  84.571  47.399  0.00  0.00    +0.000 HD
ENDBRANCH   8  20
BRANCH   6  22
ATOM     22  O4  UNL     1     -15.446  80.564  46.261  0.00  0.00    +0.000 OA
ATOM     23  H9  UNL     1     -15.646  80.206  47.180  0.00  0.00    +0.000 HD
ENDBRANCH   6  22
TORSDOF 4
ENDMDL
MODEL 5
REMARK VINA RESULT:      -3.2      2.225      7.281
REMARK  Name = .\Apigenin.pdb
REMARK  4 active torsions:
REMARK  status: ('A' for Active; 'I' for Inactive)
REMARK    1  A    between atoms: C3_3  and  O5_20
REMARK    2  A    between atoms: C6_6  and  C7_7
REMARK    3  A    between atoms: C11_12  and  O4_19
REMARK    4  A    between atoms: C13_14  and  O3_18
REMARK                            x       y       z     vdW  Elec       q    Type
REMARK                         _______ _______ _______ _____ _____    ______ ____
ROOT
ATOM      1  C7  UNL     1     -17.100  81.249  41.065  0.00  0.00    +0.000 A 
ATOM      2  C8  UNL     1     -17.859  80.296  40.368  0.00  0.00    +0.000 A 
ATOM      3  C9  UNL     1     -17.939  80.353  38.975  0.00  0.00    +0.000 A 
ATOM      4  O1  UNL     1     -18.630  79.481  38.390  0.00  0.00    +0.000 OA
ATOM      5  C10 UNL     1     -17.257  81.373  38.269  0.00  0.00    +0.000 A 
ATOM      6  C11 UNL     1     -17.262  81.537  36.847  0.00  0.00    +0.000 A 
ATOM      7  C12 UNL     1     -16.542  82.591  36.272  0.00  0.00    +0.000 A 
ATOM      8  C13 UNL     1     -15.817  83.487  37.060  0.00  0.00    +0.000 A 
ATOM      9  C14 UNL     1     -15.805  83.337  38.444  0.00  0.00    +0.000 A 
ATOM     10  C15 UNL     1     -16.512  82.297  39.050  0.00  0.00    +0.000 A 
ATOM     11  O2  UNL     1     -16.470  82.194  40.374  0.00  0.00    +0.000 OA
ENDROOT
BRANCH   1  17
ATOM     12  C1  UNL     1     -17.879  81.913  43.407  0.00  0.00    +0.000 A 
ATOM     13  C2  UNL     1     -17.707  81.889  44.795  0.00  0.00    +0.000 A 
ATOM     14  C3  UNL     1     -16.622  81.212  45.361  0.00  0.00    +0.000 A 
ATOM     15  C4  UNL     1     -15.708  80.559  44.533  0.00  0.00    +0.000 A 
ATOM     16  C5  UNL     1     -15.875  80.579  43.145  0.00  0.00    +0.000 A 
ATOM     17  C6  UNL     1     -16.963  81.255  42.555  0.00  0.00    +0.000 A 
BRANCH  14  18
ATOM     18  O5  UNL     1     -16.442  81.184  46.741  0.00  0.00    +0.000 OA
ATOM     19  H10 UNL     1     -16.110  81.997  47.249  0.00  0.00    +0.000 HD
ENDBRANCH  14  18
ENDBRANCH   1  17
BRANCH   8  20
ATOM     20  O3  UNL     1     -15.104  84.532  36.476  0.00  0.00    +0.000 OA
ATOM     21  H8  UNL     1     -14.469  84.375  35.703  0.00  0.00    +0.000 HD
ENDBRANCH   8  20
BRANCH   6  22
ATOM     22  O4  UNL     1     -17.948  80.707  35.954  0.00  0.00    +0.000 OA
ATOM     23  H9  UNL     1     -18.225  79.753  36.116  0.00  0.00    +0.000 HD
ENDBRANCH   6  22
TORSDOF 4
ENDMDL
MODEL 6
REMARK VINA RESULT:      -3.1      2.224      3.834
REMARK  Name = .\Apigenin.pdb
REMARK  4 active torsions:
REMARK  status: ('A' for Active; 'I' for Inactive)
REMARK    1  A    between atoms: C3_3  and  O5_20
REMARK    2  A    between atoms: C6_6  and  C7_7
REMARK    3  A    between atoms: C11_12  and  O4_19
REMARK    4  A    between atoms: C13_14  and  O3_18
REMARK                            x       y       z     vdW  Elec       q    Type
REMARK                         _______ _______ _______ _____ _____    ______ ____
ROOT
ATOM      1  C7  UNL     1     -18.010  82.363  41.504  0.00  0.00    +0.000 A 
ATOM      2  C8  UNL     1     -18.424  83.228  42.530  0.00  0.00    +0.000 A 
ATOM      3  C9  UNL     1     -18.252  82.858  43.864  0.00  0.00    +0.000 A 
ATOM      4  O1  UNL     1     -18.637  83.661  44.751  0.00  0.00    +0.000 OA
ATOM      5  C10 UNL     1     -17.663  81.610  44.182  0.00  0.00    +0.000 A 
ATOM      6  C11 UNL     1     -17.434  81.119  45.507  0.00  0.00    +0.000 A 
ATOM      7  C12 UNL     1     -16.840  79.863  45.684  0.00  0.00    +0.000 A 
ATOM      8  C13 UNL     1     -16.464  79.080  44.590  0.00  0.00    +0.000 A 
ATOM      9  C14 UNL     1     -16.682  79.548  43.298  0.00  0.00    +0.000 A 
ATOM     10  C15 UNL     1     -17.273  80.795  43.086  0.00  0.00    +0.000 A 
ATOM     11  O2  UNL     1     -17.460  81.199  41.834  0.00  0.00    +0.000 OA
ENDROOT
BRANCH   1  17
ATOM     12  C1  UNL     1     -18.468  83.983  39.582  0.00  0.00    +0.000 A 
ATOM     13  C2  UNL     1     -18.596  84.235  38.212  0.00  0.00    +0.000 A 
ATOM     14  C3  UNL     1     -18.419  83.204  37.284  0.00  0.00    +0.000 A 
ATOM     15  C4  UNL     1     -18.114  81.918  37.732  0.00  0.00    +0.000 A 
ATOM     16  C5  UNL     1     -17.984  81.660  39.099  0.00  0.00    +0.000 A 
ATOM     17  C6  UNL     1     -18.158  82.687  40.051  0.00  0.00    +0.000 A 
BRANCH  14  18
ATOM     18  O5  UNL     1     -18.545  83.445  35.918  0.00  0.00    +0.000 OA
ATOM     19  H10 UNL     1     -18.957  84.302  35.568  0.00  0.00    +0.000 HD
ENDBRANCH  14  18
ENDBRANCH   1  17
BRANCH   8  20
ATOM     20  O3  UNL     1     -15.874  77.833  44.780  0.00  0.00    +0.000 OA
ATOM     21  H8  UNL     1     -15.271  77.419  44.079  0.00  0.00    +0.000 HD
ENDBRANCH   8  20
BRANCH   6  22
ATOM     22  O4  UNL     1     -17.766  81.809  46.679  0.00  0.00    +0.000 OA
ATOM     23  H9  UNL     1     -17.209  82.511  47.136  0.00  0.00    +0.000 HD
ENDBRANCH   6  22
TORSDOF 4
ENDMDL
MODEL 7
REMARK VINA RESULT:      -3.1      2.080      2.594
REMARK  Name = .\Apigenin.pdb
REMARK  4 active torsions:
REMARK  status: ('A' for Active; 'I' for Inactive)
REMARK    1  A    between atoms: C3_3  and  O5_20
REMARK    2  A    between atoms: C6_6  and  C7_7
REMARK    3  A    between atoms: C11_12  and  O4_19
REMARK    4  A    between atoms: C13_14  and  O3_18
REMARK                            x       y       z     vdW  Elec       q    Type
REMARK                         _______ _______ _______ _____ _____    ______ ____
ROOT
ATOM      1  C7  UNL     1     -17.487  81.369  41.002  0.00  0.00    +0.000 A 
ATOM      2  C8  UNL     1     -18.055  80.087  41.072  0.00  0.00    +0.000 A 
ATOM      3  C9  UNL     1     -18.121  79.421  42.297  0.00  0.00    +0.000 A 
ATOM      4  O1  UNL     1     -18.636  78.275  42.315  0.00  0.00    +0.000 OA
ATOM      5  C10 UNL     1     -17.613  80.038  43.466  0.00  0.00    +0.000 A 
ATOM      6  C11 UNL     1     -17.622  79.458  44.775  0.00  0.00    +0.000 A 
ATOM      7  C12 UNL     1     -17.087  80.178  45.850  0.00  0.00    +0.000 A 
ATOM      8  C13 UNL     1     -16.544  81.452  45.671  0.00  0.00    +0.000 A 
ATOM      9  C14 UNL     1     -16.530  82.024  44.402  0.00  0.00    +0.000 A 
ATOM     10  C15 UNL     1     -17.056  81.334  43.308  0.00  0.00    +0.000 A 
ATOM     11  O2  UNL     1     -17.020  81.922  42.117  0.00  0.00    +0.000 OA
ENDROOT
BRANCH   1  17
ATOM     12  C1  UNL     1     -17.898  83.456  39.585  0.00  0.00    +0.000 A 
ATOM     13  C2  UNL     1     -17.773  84.143  38.373  0.00  0.00    +0.000 A 
ATOM     14  C3  UNL     1     -17.133  83.544  37.283  0.00  0.00    +0.000 A 
ATOM     15  C4  UNL     1     -16.619  82.253  37.410  0.00  0.00    +0.000 A 
ATOM     16  C5  UNL     1     -16.740  81.561  38.618  0.00  0.00    +0.000 A 
ATOM     17  C6  UNL     1     -17.381  82.148  39.729  0.00  0.00    +0.000 A 
BRANCH  14  18
ATOM     18  O5  UNL     1     -17.005  84.220  36.073  0.00  0.00    +0.000 OA
ATOM     19  H10 UNL     1     -17.006  83.726  35.187  0.00  0.00    +0.000 HD
ENDBRANCH  14  18
ENDBRANCH   1  17
BRANCH   8  20
ATOM     20  O3  UNL     1     -16.015  82.157  46.749  0.00  0.00    +0.000 OA
ATOM     21  H8  UNL     1     -16.533  82.899  47.204  0.00  0.00    +0.000 HD
ENDBRANCH   8  20
BRANCH   6  22
ATOM     22  O4  UNL     1     -18.137  78.194  45.081  0.00  0.00    +0.000 OA
ATOM     23  H9  UNL     1     -18.484  77.890  45.975  0.00  0.00    +0.000 HD
ENDBRANCH   6  22
TORSDOF 4
ENDMDL
MODEL 8
REMARK VINA RESULT:      -2.9      1.328      1.763
REMARK  Name = .\Apigenin.pdb
REMARK  4 active torsions:
REMARK  status: ('A' for Active; 'I' for Inactive)
REMARK    1  A    between atoms: C3_3  and  O5_20
REMARK    2  A    between atoms: C6_6  and  C7_7
REMARK    3  A    between atoms: C11_12  and  O4_19
REMARK    4  A    between atoms: C13_14  and  O3_18
REMARK                            x       y       z     vdW  Elec       q    Type
REMARK                         _______ _______ _______ _____ _____    ______ ____
ROOT
ATOM      1  C7  UNL     1     -16.557  80.639  41.697  0.00  0.00    +0.000 A 
ATOM      2  C8  UNL     1     -16.962  79.340  42.044  0.00  0.00    +0.000 A 
ATOM      3  C9  UNL     1     -17.053  78.976  43.388  0.00  0.00    +0.000 A 
ATOM      4  O1  UNL     1     -17.419  77.803  43.655  0.00  0.00    +0.000 OA
ATOM      5  C10 UNL     1     -16.736  79.915  44.399  0.00  0.00    +0.000 A 
ATOM      6  C11 UNL     1     -16.791  79.662  45.807  0.00  0.00    +0.000 A 
ATOM      7  C12 UNL     1     -16.451  80.682  46.704  0.00  0.00    +0.000 A 
ATOM      8  C13 UNL     1     -16.060  81.944  46.251  0.00  0.00    +0.000 A 
ATOM      9  C14 UNL     1     -16.003  82.200  44.884  0.00  0.00    +0.000 A 
ATOM     10  C15 UNL     1     -16.335  81.206  43.962  0.00  0.00    +0.000 A 
ATOM     11  O2  UNL     1     -16.267  81.499  42.668  0.00  0.00    +0.000 OA
ENDROOT
BRANCH   1  17
ATOM     12  C1  UNL     1     -17.554  81.317  39.443  0.00  0.00    +0.000 A 
ATOM     13  C2  UNL     1     -17.388  81.756  38.126  0.00  0.00    +0.000 A 
ATOM     14  C3  UNL     1     -16.107  81.992  37.617  0.00  0.00    +0.000 A 
ATOM     15  C4  UNL     1     -14.993  81.788  38.431  0.00  0.00    +0.000 A 
ATOM     16  C5  UNL     1     -15.152  81.351  39.748  0.00  0.00    +0.000 A 
ATOM     17  C6  UNL     1     -16.436  81.107  40.281  0.00  0.00    +0.000 A 
BRANCH  14  18
ATOM     18  O5  UNL     1     -15.931  82.428  36.305  0.00  0.00    +0.000 OA
ATOM     19  H10 UNL     1     -15.286  83.176  36.078  0.00  0.00    +0.000 HD
ENDBRANCH  14  18
ENDBRANCH   1  17
BRANCH   8  20
ATOM     20  O3  UNL     1     -15.724  82.950  47.154  0.00  0.00    +0.000 OA
ATOM     21  H8  UNL     1     -15.118  83.719  46.892  0.00  0.00    +0.000 HD
ENDBRANCH   8  20
BRANCH   6  22
ATOM     22  O4  UNL     1     -17.166  78.443  46.381  0.00  0.00    +0.000 OA
ATOM     23  H9  UNL     1     -16.547  77.740  46.750  0.00  0.00    +0.000 HD
ENDBRANCH   6  22
TORSDOF 4
ENDMDL
MODEL 9
REMARK VINA RESULT:      -2.8      1.966      7.162
REMARK  Name = .\Apigenin.pdb
REMARK  4 active torsions:
REMARK  status: ('A' for Active; 'I' for Inactive)
REMARK    1  A    between atoms: C3_3  and  O5_20
REMARK    2  A    between atoms: C6_6  and  C7_7
REMARK    3  A    between atoms: C11_12  and  O4_19
REMARK    4  A    between atoms: C13_14  and  O3_18
REMARK                            x       y       z     vdW  Elec       q    Type
REMARK                         _______ _______ _______ _____ _____    ______ ____
ROOT
ATOM      1  C7  UNL     1     -16.767  80.532  41.444  0.00  0.00    +0.000 A 
ATOM      2  C8  UNL     1     -17.791  80.285  40.516  0.00  0.00    +0.000 A 
ATOM      3  C9  UNL     1     -17.700  80.804  39.224  0.00  0.00    +0.000 A 
ATOM      4  O1  UNL     1     -18.639  80.560  38.425  0.00  0.00    +0.000 OA
ATOM      5  C10 UNL     1     -16.576  81.581  38.851  0.00  0.00    +0.000 A 
ATOM      6  C11 UNL     1     -16.369  82.166  37.561  0.00  0.00    +0.000 A 
ATOM      7  C12 UNL     1     -15.209  82.913  37.322  0.00  0.00    +0.000 A 
ATOM      8  C13 UNL     1     -14.249  83.098  38.318  0.00  0.00    +0.000 A 
ATOM      9  C14 UNL     1     -14.441  82.534  39.576  0.00  0.00    +0.000 A 
ATOM     10  C15 UNL     1     -15.586  81.783  39.848  0.00  0.00    +0.000 A 
ATOM     11  O2  UNL     1     -15.724  81.264  41.064  0.00  0.00    +0.000 OA
ENDROOT
BRANCH   1  17
ATOM     12  C1  UNL     1     -17.612  78.937  43.252  0.00  0.00    +0.000 A 
ATOM     13  C2  UNL     1     -17.597  78.486  44.576  0.00  0.00    +0.000 A 
ATOM     14  C3  UNL     1     -16.764  79.094  45.520  0.00  0.00    +0.000 A 
ATOM     15  C4  UNL     1     -15.945  80.156  45.134  0.00  0.00    +0.000 A 
ATOM     16  C5  UNL     1     -15.956  80.612  43.813  0.00  0.00    +0.000 A 
ATOM     17  C6  UNL     1     -16.789  80.011  42.846  0.00  0.00    +0.000 A 
BRANCH  14  18
ATOM     18  O5  UNL     1     -16.742  78.653  46.840  0.00  0.00    +0.000 OA
ATOM     19  H10 UNL     1     -16.630  77.672  47.069  0.00  0.00    +0.000 HD
ENDBRANCH  14  18
ENDBRANCH   1  17
BRANCH   8  20
ATOM     20  O3  UNL     1     -13.099  83.844  38.067  0.00  0.00    +0.000 OA
ATOM     21  H8  UNL     1     -13.070  84.544  37.335  0.00  0.00    +0.000 HD
ENDBRANCH   8  20
BRANCH   6  22
ATOM     22  O4  UNL     1     -17.256  82.051  36.484  0.00  0.00    +0.000 OA
ATOM     23  H9  UNL     1     -17.556  82.794  35.876  0.00  0.00    +0.000 HD
ENDBRANCH   6  22
TORSDOF 4
ENDMDL
