MODEL 1
REMARK VINA RESULT:      -3.9      0.000      0.000
REMARK  Name = .\Apigenin.pdb
REMARK  4 active torsions:
REMARK  status: ('A' for Active; 'I' for Inactive)
REMARK    1  A    between atoms: C3_3  and  O5_20
REMARK    2  A    between atoms: C6_6  and  C7_7
REMARK    3  A    between atoms: C11_12  and  O4_19
REMARK    4  A    between atoms: C13_14  and  O3_18
REMARK                            x       y       z     vdW  Elec       q    Type
REMARK                         _______ _______ _______ _____ _____    ______ ____
ROOT
ATOM      1  C7  UNL     1     -26.769  37.276  -9.863  0.00  0.00    +0.000 A 
ATOM      2  C8  UNL     1     -26.329  36.698  -8.663  0.00  0.00    +0.000 A 
ATOM      3  C9  UNL     1     -24.975  36.405  -8.487  0.00  0.00    +0.000 A 
ATOM      4  O1  UNL     1     -24.623  35.886  -7.397  0.00  0.00    +0.000 OA
ATOM      5  C10 UNL     1     -24.050  36.689  -9.520  0.00  0.00    +0.000 A 
ATOM      6  C11 UNL     1     -22.642  36.436  -9.460  0.00  0.00    +0.000 A 
ATOM      7  C12 UNL     1     -21.835  36.766 -10.555  0.00  0.00    +0.000 A 
ATOM      8  C13 UNL     1     -22.377  37.341 -11.707  0.00  0.00    +0.000 A 
ATOM      9  C14 UNL     1     -23.744  37.592 -11.775  0.00  0.00    +0.000 A 
ATOM     10  C15 UNL     1     -24.578  37.274 -10.702  0.00  0.00    +0.000 A 
ATOM     11  O2  UNL     1     -25.877  37.533 -10.814  0.00  0.00    +0.000 OA
ENDROOT
BRANCH   1  17
ATOM     12  C1  UNL     1     -28.894  37.189 -11.281  0.00  0.00    +0.000 A 
ATOM     13  C2  UNL     1     -30.233  37.538 -11.483  0.00  0.00    +0.000 A 
ATOM     14  C3  UNL     1     -30.907  38.324 -10.543  0.00  0.00    +0.000 A 
ATOM     15  C4  UNL     1     -30.237  38.759  -9.400  0.00  0.00    +0.000 A 
ATOM     16  C5  UNL     1     -28.899  38.413  -9.192  0.00  0.00    +0.000 A 
ATOM     17  C6  UNL     1     -28.201  37.621 -10.128  0.00  0.00    +0.000 A 
BRANCH  14  18
ATOM     18  O5  UNL     1     -32.240  38.678 -10.736  0.00  0.00    +0.000 OA
ATOM     19  H10 UNL     1     -32.575  39.015 -11.632  0.00  0.00    +0.000 HD
ENDBRANCH  14  18
ENDBRANCH   1  17
BRANCH   8  20
ATOM     20  O3  UNL     1     -21.563  37.666 -12.789  0.00  0.00    +0.000 OA
ATOM     21  H8  UNL     1     -21.527  38.606 -13.163  0.00  0.00    +0.000 HD
ENDBRANCH   8  20
BRANCH   6  22
ATOM     22  O4  UNL     1     -21.983  35.866  -8.365  0.00  0.00    +0.000 OA
ATOM     23  H9  UNL     1     -21.046  35.501  -8.355  0.00  0.00    +0.000 HD
ENDBRANCH   6  22
TORSDOF 4
ENDMDL
MODEL 2
REMARK VINA RESULT:      -3.8      1.963      7.394
REMARK  Name = .\Apigenin.pdb
REMARK  4 active torsions:
REMARK  status: ('A' for Active; 'I' for Inactive)
REMARK    1  A    between atoms: C3_3  and  O5_20
REMARK    2  A    between atoms: C6_6  and  C7_7
REMARK    3  A    between atoms: C11_12  and  O4_19
REMARK    4  A    between atoms: C13_14  and  O3_18
REMARK                            x       y       z     vdW  Elec       q    Type
REMARK                         _______ _______ _______ _____ _____    ______ ____
ROOT
ATOM      1  C7  UNL     1     -27.261  37.590 -11.031  0.00  0.00    +0.000 A 
ATOM      2  C8  UNL     1     -27.892  36.972 -12.122  0.00  0.00    +0.000 A 
ATOM      3  C9  UNL     1     -29.285  36.963 -12.207  0.00  0.00    +0.000 A 
ATOM      4  O1  UNL     1     -29.809  36.399 -13.200  0.00  0.00    +0.000 OA
ATOM      5  C10 UNL     1     -30.059  37.574 -11.191  0.00  0.00    +0.000 A 
ATOM      6  C11 UNL     1     -31.490  37.629 -11.166  0.00  0.00    +0.000 A 
ATOM      7  C12 UNL     1     -32.135  38.267 -10.099  0.00  0.00    +0.000 A 
ATOM      8  C13 UNL     1     -31.410  38.852  -9.059  0.00  0.00    +0.000 A 
ATOM      9  C14 UNL     1     -30.019  38.804  -9.075  0.00  0.00    +0.000 A 
ATOM     10  C15 UNL     1     -29.343  38.176 -10.123  0.00  0.00    +0.000 A 
ATOM     11  O2  UNL     1     -28.015  38.156 -10.094  0.00  0.00    +0.000 OA
ENDROOT
BRANCH   1  17
ATOM     12  C1  UNL     1     -25.137  38.467  -9.913  0.00  0.00    +0.000 A 
ATOM     13  C2  UNL     1     -23.743  38.482  -9.800  0.00  0.00    +0.000 A 
ATOM     14  C3  UNL     1     -22.958  37.679 -10.634  0.00  0.00    +0.000 A 
ATOM     15  C4  UNL     1     -23.573  36.861 -11.582  0.00  0.00    +0.000 A 
ATOM     16  C5  UNL     1     -24.965  36.842 -11.700  0.00  0.00    +0.000 A 
ATOM     17  C6  UNL     1     -25.774  37.644 -10.868  0.00  0.00    +0.000 A 
BRANCH  14  18
ATOM     18  O5  UNL     1     -21.569  37.688 -10.529  0.00  0.00    +0.000 OA
ATOM     19  H10 UNL     1     -21.069  36.945 -10.054  0.00  0.00    +0.000 HD
ENDBRANCH  14  18
ENDBRANCH   1  17
BRANCH   8  20
ATOM     20  O3  UNL     1     -32.064  39.484  -8.004  0.00  0.00    +0.000 OA
ATOM     21  H8  UNL     1     -31.664  40.289  -7.537  0.00  0.00    +0.000 HD
ENDBRANCH   8  20
BRANCH   6  22
ATOM     22  O4  UNL     1     -32.324  37.082 -12.146  0.00  0.00    +0.000 OA
ATOM     23  H9  UNL     1     -32.848  36.226 -12.075  0.00  0.00    +0.000 HD
ENDBRANCH   6  22
TORSDOF 4
ENDMDL
MODEL 3
REMARK VINA RESULT:      -3.7      2.642      7.285
REMARK  Name = .\Apigenin.pdb
REMARK  4 active torsions:
REMARK  status: ('A' for Active; 'I' for Inactive)
REMARK    1  A    between atoms: C3_3  and  O5_20
REMARK    2  A    between atoms: C6_6  and  C7_7
REMARK    3  A    between atoms: C11_12  and  O4_19
REMARK    4  A    between atoms: C13_14  and  O3_18
REMARK                            x       y       z     vdW  Elec       q    Type
REMARK                         _______ _______ _______ _____ _____    ______ ____
ROOT
ATOM      1  C7  UNL     1     -27.742  37.917 -10.374  0.00  0.00    +0.000 A 
ATOM      2  C8  UNL     1     -28.228  37.679 -11.670  0.00  0.00    +0.000 A 
ATOM      3  C9  UNL     1     -29.482  37.093 -11.846  0.00  0.00    +0.000 A 
ATOM      4  O1  UNL     1     -29.879  36.898 -13.023  0.00  0.00    +0.000 OA
ATOM      5  C10 UNL     1     -30.262  36.738 -10.719  0.00  0.00    +0.000 A 
ATOM      6  C11 UNL     1     -31.559  36.132 -10.771  0.00  0.00    +0.000 A 
ATOM      7  C12 UNL     1     -32.226  35.830  -9.577  0.00  0.00    +0.000 A 
ATOM      8  C13 UNL     1     -31.651  36.109  -8.336  0.00  0.00    +0.000 A 
ATOM      9  C14 UNL     1     -30.391  36.698  -8.275  0.00  0.00    +0.000 A 
ATOM     10  C15 UNL     1     -29.698  37.012  -9.445  0.00  0.00    +0.000 A 
ATOM     11  O2  UNL     1     -28.498  37.572  -9.336  0.00  0.00    +0.000 OA
ENDROOT
BRANCH   1  17
ATOM     12  C1  UNL     1     -26.173  39.928 -10.227  0.00  0.00    +0.000 A 
ATOM     13  C2  UNL     1     -24.909  40.464  -9.960  0.00  0.00    +0.000 A 
ATOM     14  C3  UNL     1     -23.858  39.631  -9.564  0.00  0.00    +0.000 A 
ATOM     15  C4  UNL     1     -24.077  38.259  -9.435  0.00  0.00    +0.000 A 
ATOM     16  C5  UNL     1     -25.337  37.717  -9.700  0.00  0.00    +0.000 A 
ATOM     17  C6  UNL     1     -26.410  38.541 -10.101  0.00  0.00    +0.000 A 
BRANCH  14  18
ATOM     18  O5  UNL     1     -22.596  40.155  -9.297  0.00  0.00    +0.000 OA
ATOM     19  H10 UNL     1     -22.478  40.996  -8.744  0.00  0.00    +0.000 HD
ENDBRANCH  14  18
ENDBRANCH   1  17
BRANCH   8  20
ATOM     20  O3  UNL     1     -32.325  35.804  -7.156  0.00  0.00    +0.000 OA
ATOM     21  H8  UNL     1     -32.834  36.510  -6.637  0.00  0.00    +0.000 HD
ENDBRANCH   8  20
BRANCH   6  22
ATOM     22  O4  UNL     1     -32.237  35.806 -11.950  0.00  0.00    +0.000 OA
ATOM     23  H9  UNL     1     -31.889  35.233 -12.701  0.00  0.00    +0.000 HD
ENDBRANCH   6  22
TORSDOF 4
ENDMDL
MODEL 4
REMARK VINA RESULT:      -3.2      2.039      2.839
REMARK  Name = .\Apigenin.pdb
REMARK  4 active torsions:
REMARK  status: ('A' for Active; 'I' for Inactive)
REMARK    1  A    between atoms: C3_3  and  O5_20
REMARK    2  A    between atoms: C6_6  and  C7_7
REMARK    3  A    between atoms: C11_12  and  O4_19
REMARK    4  A    between atoms: C13_14  and  O3_18
REMARK                            x       y       z     vdW  Elec       q    Type
REMARK                         _______ _______ _______ _____ _____    ______ ____
ROOT
ATOM      1  C7  UNL     1     -27.316  37.900 -11.032  0.00  0.00    +0.000 A 
ATOM      2  C8  UNL     1     -27.130  39.164 -10.451  0.00  0.00    +0.000 A 
ATOM      3  C9  UNL     1     -25.861  39.552 -10.018  0.00  0.00    +0.000 A 
ATOM      4  O1  UNL     1     -25.739  40.692  -9.502  0.00  0.00    +0.000 OA
ATOM      5  C10 UNL     1     -24.764  38.669 -10.163  0.00  0.00    +0.000 A 
ATOM      6  C11 UNL     1     -23.420  38.951  -9.759  0.00  0.00    +0.000 A 
ATOM      7  C12 UNL     1     -22.424  37.987  -9.961  0.00  0.00    +0.000 A 
ATOM      8  C13 UNL     1     -22.716  36.756 -10.551  0.00  0.00    +0.000 A 
ATOM      9  C14 UNL     1     -24.020  36.472 -10.947  0.00  0.00    +0.000 A 
ATOM     10  C15 UNL     1     -25.037  37.410 -10.760  0.00  0.00    +0.000 A 
ATOM     11  O2  UNL     1     -26.266  37.094 -11.156  0.00  0.00    +0.000 OA
ENDROOT
BRANCH   1  17
ATOM     12  C1  UNL     1     -29.856  37.684 -10.852  0.00  0.00    +0.000 A 
ATOM     13  C2  UNL     1     -31.071  37.204 -11.351  0.00  0.00    +0.000 A 
ATOM     14  C3  UNL     1     -31.102  36.444 -12.525  0.00  0.00    +0.000 A 
ATOM     15  C4  UNL     1     -29.911  36.166 -13.197  0.00  0.00    +0.000 A 
ATOM     16  C5  UNL     1     -28.694  36.642 -12.704  0.00  0.00    +0.000 A 
ATOM     17  C6  UNL     1     -28.642  37.411 -11.522  0.00  0.00    +0.000 A 
BRANCH  14  18
ATOM     18  O5  UNL     1     -32.307  35.961 -13.029  0.00  0.00    +0.000 OA
ATOM     19  H10 UNL     1     -33.182  36.103 -12.537  0.00  0.00    +0.000 HD
ENDBRANCH  14  18
ENDBRANCH   1  17
BRANCH   8  20
ATOM     20  O3  UNL     1     -21.716  35.806 -10.746  0.00  0.00    +0.000 OA
ATOM     21  H8  UNL     1     -20.826  36.050 -11.163  0.00  0.00    +0.000 HD
ENDBRANCH   8  20
BRANCH   6  22
ATOM     22  O4  UNL     1     -23.003  40.144  -9.159  0.00  0.00    +0.000 OA
ATOM     23  H9  UNL     1     -23.371  41.063  -9.338  0.00  0.00    +0.000 HD
ENDBRANCH   6  22
TORSDOF 4
ENDMDL
MODEL 5
REMARK VINA RESULT:      -2.9      2.244      3.220
REMARK  Name = .\Apigenin.pdb
REMARK  4 active torsions:
REMARK  status: ('A' for Active; 'I' for Inactive)
REMARK    1  A    between atoms: C3_3  and  O5_20
REMARK    2  A    between atoms: C6_6  and  C7_7
REMARK    3  A    between atoms: C11_12  and  O4_19
REMARK    4  A    between atoms: C13_14  and  O3_18
REMARK                            x       y       z     vdW  Elec       q    Type
REMARK                         _______ _______ _______ _____ _____    ______ ____
ROOT
ATOM      1  C7  UNL     1     -27.484  38.097  -9.484  0.00  0.00    +0.000 A 
ATOM      2  C8  UNL     1     -27.351  39.396  -9.998  0.00  0.00    +0.000 A 
ATOM      3  C9  UNL     1     -26.116  39.830 -10.482  0.00  0.00    +0.000 A 
ATOM      4  O1  UNL     1     -26.039  41.001 -10.933  0.00  0.00    +0.000 OA
ATOM      5  C10 UNL     1     -24.999  38.960 -10.451  0.00  0.00    +0.000 A 
ATOM      6  C11 UNL     1     -23.685  39.288 -10.915  0.00  0.00    +0.000 A 
ATOM      7  C12 UNL     1     -22.665  38.333 -10.827  0.00  0.00    +0.000 A 
ATOM      8  C13 UNL     1     -22.905  37.063 -10.296  0.00  0.00    +0.000 A 
ATOM      9  C14 UNL     1     -24.179  36.735  -9.842  0.00  0.00    +0.000 A 
ATOM     10  C15 UNL     1     -25.219  37.664  -9.914  0.00  0.00    +0.000 A 
ATOM     11  O2  UNL     1     -26.418  37.303  -9.469  0.00  0.00    +0.000 OA
ENDROOT
BRANCH   1  17
ATOM     12  C1  UNL     1     -30.013  38.210  -9.131  0.00  0.00    +0.000 A 
ATOM     13  C2  UNL     1     -31.191  37.664  -8.611  0.00  0.00    +0.000 A 
ATOM     14  C3  UNL     1     -31.157  36.460  -7.900  0.00  0.00    +0.000 A 
ATOM     15  C4  UNL     1     -29.941  35.804  -7.711  0.00  0.00    +0.000 A 
ATOM     16  C5  UNL     1     -28.760  36.344  -8.228  0.00  0.00    +0.000 A 
ATOM     17  C6  UNL     1     -28.773  37.557  -8.949  0.00  0.00    +0.000 A 
BRANCH  14  18
ATOM     18  O5  UNL     1     -32.325  35.909  -7.377  0.00  0.00    +0.000 OA
ATOM     19  H10 UNL     1     -32.610  36.081  -6.420  0.00  0.00    +0.000 HD
ENDBRANCH  14  18
ENDBRANCH   1  17
BRANCH   8  20
ATOM     20  O3  UNL     1     -21.882  36.122 -10.215  0.00  0.00    +0.000 OA
ATOM     21  H8  UNL     1     -21.161  36.181  -9.506  0.00  0.00    +0.000 HD
ENDBRANCH   8  20
BRANCH   6  22
ATOM     22  O4  UNL     1     -23.321  40.522 -11.465  0.00  0.00    +0.000 OA
ATOM     23  H9  UNL     1     -23.927  41.311 -11.616  0.00  0.00    +0.000 HD
ENDBRANCH   6  22
TORSDOF 4
ENDMDL
MODEL 6
REMARK VINA RESULT:      -1.6      2.194      3.010
REMARK  Name = .\Apigenin.pdb
REMARK  4 active torsions:
REMARK  status: ('A' for Active; 'I' for Inactive)
REMARK    1  A    between atoms: C3_3  and  O5_20
REMARK    2  A    between atoms: C6_6  and  C7_7
REMARK    3  A    between atoms: C11_12  and  O4_19
REMARK    4  A    between atoms: C13_14  and  O3_18
REMARK                            x       y       z     vdW  Elec       q    Type
REMARK                         _______ _______ _______ _____ _____    ______ ____
ROOT
ATOM      1  C7  UNL     1     -27.352  36.981 -10.079  0.00  0.00    +0.000 A 
ATOM      2  C8  UNL     1     -27.045  36.288 -11.260  0.00  0.00    +0.000 A 
ATOM      3  C9  UNL     1     -25.792  36.445 -11.854  0.00  0.00    +0.000 A 
ATOM      4  O1  UNL     1     -25.558  35.807 -12.911  0.00  0.00    +0.000 OA
ATOM      5  C10 UNL     1     -24.832  37.304 -11.265  0.00  0.00    +0.000 A 
ATOM      6  C11 UNL     1     -23.518  37.547 -11.777  0.00  0.00    +0.000 A 
ATOM      7  C12 UNL     1     -22.664  38.423 -11.095  0.00  0.00    +0.000 A 
ATOM      8  C13 UNL     1     -23.070  39.064  -9.922  0.00  0.00    +0.000 A 
ATOM      9  C14 UNL     1     -24.346  38.834  -9.416  0.00  0.00    +0.000 A 
ATOM     10  C15 UNL     1     -25.223  37.967 -10.071  0.00  0.00    +0.000 A 
ATOM     11  O2  UNL     1     -26.431  37.780  -9.549  0.00  0.00    +0.000 OA
ENDROOT
BRANCH   1  17
ATOM     12  C1  UNL     1     -29.796  37.644  -9.735  0.00  0.00    +0.000 A 
ATOM     13  C2  UNL     1     -31.008  37.499  -9.052  0.00  0.00    +0.000 A 
ATOM     14  C3  UNL     1     -31.123  36.579  -8.005  0.00  0.00    +0.000 A 
ATOM     15  C4  UNL     1     -30.020  35.804  -7.644  0.00  0.00    +0.000 A 
ATOM     16  C5  UNL     1     -28.807  35.944  -8.323  0.00  0.00    +0.000 A 
ATOM     17  C6  UNL     1     -28.671  36.866  -9.382  0.00  0.00    +0.000 A 
BRANCH  14  18
ATOM     18  O5  UNL     1     -32.325  36.428  -7.318  0.00  0.00    +0.000 OA
ATOM     19  H10 UNL     1     -32.611  35.532  -6.941  0.00  0.00    +0.000 HD
ENDBRANCH  14  18
ENDBRANCH   1  17
BRANCH   8  20
ATOM     20  O3  UNL     1     -22.211  39.932  -9.254  0.00  0.00    +0.000 OA
ATOM     21  H8  UNL     1     -21.539  40.503  -9.752  0.00  0.00    +0.000 HD
ENDBRANCH   8  20
BRANCH   6  22
ATOM     22  O4  UNL     1     -22.997  36.966 -12.939  0.00  0.00    +0.000 OA
ATOM     23  H9  UNL     1     -23.382  37.036 -13.866  0.00  0.00    +0.000 HD
ENDBRANCH   6  22
TORSDOF 4
ENDMDL
MODEL 7
REMARK VINA RESULT:      -1.4      1.715      7.286
REMARK  Name = .\Apigenin.pdb
REMARK  4 active torsions:
REMARK  status: ('A' for Active; 'I' for Inactive)
REMARK    1  A    between atoms: C3_3  and  O5_20
REMARK    2  A    between atoms: C6_6  and  C7_7
REMARK    3  A    between atoms: C11_12  and  O4_19
REMARK    4  A    between atoms: C13_14  and  O3_18
REMARK                            x       y       z     vdW  Elec       q    Type
REMARK                         _______ _______ _______ _____ _____    ______ ____
ROOT
ATOM      1  C7  UNL     1     -26.555  37.453 -10.344  0.00  0.00    +0.000 A 
ATOM      2  C8  UNL     1     -26.913  37.765 -11.665  0.00  0.00    +0.000 A 
ATOM      3  C9  UNL     1     -28.258  37.922 -12.003  0.00  0.00    +0.000 A 
ATOM      4  O1  UNL     1     -28.536  38.200 -13.197  0.00  0.00    +0.000 OA
ATOM      5  C10 UNL     1     -29.259  37.767 -11.013  0.00  0.00    +0.000 A 
ATOM      6  C11 UNL     1     -30.667  37.902 -11.235  0.00  0.00    +0.000 A 
ATOM      7  C12 UNL     1     -31.553  37.722 -10.166  0.00  0.00    +0.000 A 
ATOM      8  C13 UNL     1     -31.089  37.414  -8.885  0.00  0.00    +0.000 A 
ATOM      9  C14 UNL     1     -29.723  37.280  -8.659  0.00  0.00    +0.000 A 
ATOM     10  C15 UNL     1     -28.811  37.452  -9.703  0.00  0.00    +0.000 A 
ATOM     11  O2  UNL     1     -27.517  37.314  -9.437  0.00  0.00    +0.000 OA
ENDROOT
BRANCH   1  17
ATOM     12  C1  UNL     1     -24.783  36.556  -8.735  0.00  0.00    +0.000 A 
ATOM     13  C2  UNL     1     -23.442  36.412  -8.365  0.00  0.00    +0.000 A 
ATOM     14  C3  UNL     1     -22.429  36.975  -9.147  0.00  0.00    +0.000 A 
ATOM     15  C4  UNL     1     -22.762  37.683 -10.302  0.00  0.00    +0.000 A 
ATOM     16  C5  UNL     1     -24.100  37.830 -10.678  0.00  0.00    +0.000 A 
ATOM     17  C6  UNL     1     -25.137  37.269  -9.902  0.00  0.00    +0.000 A 
BRANCH  14  18
ATOM     18  O5  UNL     1     -21.091  36.838  -8.786  0.00  0.00    +0.000 OA
ATOM     19  H10 UNL     1     -20.822  36.516  -7.863  0.00  0.00    +0.000 HD
ENDBRANCH  14  18
ENDBRANCH   1  17
BRANCH   8  20
ATOM     20  O3  UNL     1     -31.982  37.237  -7.830  0.00  0.00    +0.000 OA
ATOM     21  H8  UNL     1     -32.906  37.652  -7.841  0.00  0.00    +0.000 HD
ENDBRANCH   8  20
BRANCH   6  22
ATOM     22  O4  UNL     1     -31.251  38.209 -12.469  0.00  0.00    +0.000 OA
ATOM     23  H9  UNL     1     -30.766  38.459 -13.314  0.00  0.00    +0.000 HD
ENDBRANCH   6  22
TORSDOF 4
ENDMDL
