MODEL 1
REMARK VINA RESULT:      -6.0      0.000      0.000
REMARK  Name = .\Apigenin.pdb
REMARK  4 active torsions:
REMARK  status: ('A' for Active; 'I' for Inactive)
REMARK    1  A    between atoms: C3_3  and  O5_20
REMARK    2  A    between atoms: C6_6  and  C7_7
REMARK    3  A    between atoms: C11_12  and  O4_19
REMARK    4  A    between atoms: C13_14  and  O3_18
REMARK                            x       y       z     vdW  Elec       q    Type
REMARK                         _______ _______ _______ _____ _____    ______ ____
ROOT
ATOM      1  C7  UNL     1       9.364  50.323  21.060  0.00  0.00    +0.000 A 
ATOM      2  C8  UNL     1       9.178  51.565  21.686  0.00  0.00    +0.000 A 
ATOM      3  C9  UNL     1       9.902  51.880  22.837  0.00  0.00    +0.000 A 
ATOM      4  O1  UNL     1       9.705  53.003  23.366  0.00  0.00    +0.000 OA
ATOM      5  C10 UNL     1      10.822  50.946  23.372  0.00  0.00    +0.000 A 
ATOM      6  C11 UNL     1      11.620  51.151  24.542  0.00  0.00    +0.000 A 
ATOM      7  C12 UNL     1      12.494  50.142  24.966  0.00  0.00    +0.000 A 
ATOM      8  C13 UNL     1      12.603  48.938  24.267  0.00  0.00    +0.000 A 
ATOM      9  C14 UNL     1      11.831  48.728  23.128  0.00  0.00    +0.000 A 
ATOM     10  C15 UNL     1      10.950  49.713  22.678  0.00  0.00    +0.000 A 
ATOM     11  O2  UNL     1      10.234  49.466  21.586  0.00  0.00    +0.000 OA
ENDROOT
BRANCH   1  17
ATOM     12  C1  UNL     1       8.865  50.493  18.559  0.00  0.00    +0.000 A 
ATOM     13  C2  UNL     1       8.150  50.073  17.434  0.00  0.00    +0.000 A 
ATOM     14  C3  UNL     1       7.185  49.067  17.545  0.00  0.00    +0.000 A 
ATOM     15  C4  UNL     1       6.938  48.482  18.787  0.00  0.00    +0.000 A 
ATOM     16  C5  UNL     1       7.650  48.897  19.916  0.00  0.00    +0.000 A 
ATOM     17  C6  UNL     1       8.627  49.911  19.824  0.00  0.00    +0.000 A 
BRANCH  14  18
ATOM     18  O5  UNL     1       6.467  48.642  16.429  0.00  0.00    +0.000 OA
ATOM     19  H10 UNL     1       6.274  47.661  16.265  0.00  0.00    +0.000 HD
ENDBRANCH  14  18
ENDBRANCH   1  17
BRANCH   8  20
ATOM     20  O3  UNL     1      13.476  47.943  24.699  0.00  0.00    +0.000 OA
ATOM     21  H8  UNL     1      13.249  46.960  24.607  0.00  0.00    +0.000 HD
ENDBRANCH   8  20
BRANCH   6  22
ATOM     22  O4  UNL     1      11.600  52.311  25.324  0.00  0.00    +0.000 OA
ATOM     23  H9  UNL     1      10.819  52.662  25.853  0.00  0.00    +0.000 HD
ENDBRANCH   6  22
TORSDOF 4
ENDMDL
MODEL 2
REMARK VINA RESULT:      -5.7      1.352      2.303
REMARK  Name = .\Apigenin.pdb
REMARK  4 active torsions:
REMARK  status: ('A' for Active; 'I' for Inactive)
REMARK    1  A    between atoms: C3_3  and  O5_20
REMARK    2  A    between atoms: C6_6  and  C7_7
REMARK    3  A    between atoms: C11_12  and  O4_19
REMARK    4  A    between atoms: C13_14  and  O3_18
REMARK                            x       y       z     vdW  Elec       q    Type
REMARK                         _______ _______ _______ _____ _____    ______ ____
ROOT
ATOM      1  C7  UNL     1       8.332  49.754  19.522  0.00  0.00    +0.000 A 
ATOM      2  C8  UNL     1       7.861  51.001  19.962  0.00  0.00    +0.000 A 
ATOM      3  C9  UNL     1       8.438  51.609  21.077  0.00  0.00    +0.000 A 
ATOM      4  O1  UNL     1       7.986  52.725  21.438  0.00  0.00    +0.000 OA
ATOM      5  C10 UNL     1       9.497  50.967  21.764  0.00  0.00    +0.000 A 
ATOM      6  C11 UNL     1      10.168  51.488  22.917  0.00  0.00    +0.000 A 
ATOM      7  C12 UNL     1      11.204  50.749  23.503  0.00  0.00    +0.000 A 
ATOM      8  C13 UNL     1      11.596  49.514  22.983  0.00  0.00    +0.000 A 
ATOM      9  C14 UNL     1      10.950  48.999  21.863  0.00  0.00    +0.000 A 
ATOM     10  C15 UNL     1       9.913  49.709  21.254  0.00  0.00    +0.000 A 
ATOM     11  O2  UNL     1       9.327  49.176  20.187  0.00  0.00    +0.000 OA
ENDROOT
BRANCH   1  17
ATOM     12  C1  UNL     1       6.698  48.119  18.431  0.00  0.00    +0.000 A 
ATOM     13  C2  UNL     1       6.206  47.475  17.291  0.00  0.00    +0.000 A 
ATOM     14  C3  UNL     1       6.767  47.732  16.037  0.00  0.00    +0.000 A 
ATOM     15  C4  UNL     1       7.824  48.636  15.926  0.00  0.00    +0.000 A 
ATOM     16  C5  UNL     1       8.320  49.283  17.061  0.00  0.00    +0.000 A 
ATOM     17  C6  UNL     1       7.767  49.038  18.335  0.00  0.00    +0.000 A 
BRANCH  14  18
ATOM     18  O5  UNL     1       6.284  47.095  14.896  0.00  0.00    +0.000 OA
ATOM     19  H10 UNL     1       5.590  47.531  14.300  0.00  0.00    +0.000 HD
ENDBRANCH  14  18
ENDBRANCH   1  17
BRANCH   8  20
ATOM     20  O3  UNL     1      12.628  48.789  23.576  0.00  0.00    +0.000 OA
ATOM     21  H8  UNL     1      13.564  48.786  23.190  0.00  0.00    +0.000 HD
ENDBRANCH   8  20
BRANCH   6  22
ATOM     22  O4  UNL     1       9.867  52.710  23.528  0.00  0.00    +0.000 OA
ATOM     23  H9  UNL     1       8.980  52.980  23.919  0.00  0.00    +0.000 HD
ENDBRANCH   6  22
TORSDOF 4
ENDMDL
MODEL 3
REMARK VINA RESULT:      -5.5      1.192      2.982
REMARK  Name = .\Apigenin.pdb
REMARK  4 active torsions:
REMARK  status: ('A' for Active; 'I' for Inactive)
REMARK    1  A    between atoms: C3_3  and  O5_20
REMARK    2  A    between atoms: C6_6  and  C7_7
REMARK    3  A    between atoms: C11_12  and  O4_19
REMARK    4  A    between atoms: C13_14  and  O3_18
REMARK                            x       y       z     vdW  Elec       q    Type
REMARK                         _______ _______ _______ _____ _____    ______ ____
ROOT
ATOM      1  C7  UNL     1       9.389  49.504  20.825  0.00  0.00    +0.000 A 
ATOM      2  C8  UNL     1      10.233  48.542  21.402  0.00  0.00    +0.000 A 
ATOM      3  C9  UNL     1      11.016  48.876  22.508  0.00  0.00    +0.000 A 
ATOM      4  O1  UNL     1      11.758  47.986  22.993  0.00  0.00    +0.000 OA
ATOM      5  C10 UNL     1      10.959  50.185  23.045  0.00  0.00    +0.000 A 
ATOM      6  C11 UNL     1      11.711  50.647  24.173  0.00  0.00    +0.000 A 
ATOM      7  C12 UNL     1      11.561  51.971  24.604  0.00  0.00    +0.000 A 
ATOM      8  C13 UNL     1      10.690  52.850  23.957  0.00  0.00    +0.000 A 
ATOM      9  C14 UNL     1       9.955  52.410  22.860  0.00  0.00    +0.000 A 
ATOM     10  C15 UNL     1      10.080  51.097  22.403  0.00  0.00    +0.000 A 
ATOM     11  O2  UNL     1       9.357  50.724  21.353  0.00  0.00    +0.000 OA
ENDROOT
BRANCH   1  17
ATOM     12  C1  UNL     1       7.494  48.252  19.655  0.00  0.00    +0.000 A 
ATOM     13  C2  UNL     1       6.707  48.028  18.520  0.00  0.00    +0.000 A 
ATOM     14  C3  UNL     1       6.924  48.766  17.352  0.00  0.00    +0.000 A 
ATOM     15  C4  UNL     1       7.933  49.729  17.323  0.00  0.00    +0.000 A 
ATOM     16  C5  UNL     1       8.723  49.958  18.453  0.00  0.00    +0.000 A 
ATOM     17  C6  UNL     1       8.519  49.224  19.641  0.00  0.00    +0.000 A 
BRANCH  14  18
ATOM     18  O5  UNL     1       6.146  48.549  16.218  0.00  0.00    +0.000 OA
ATOM     19  H10 UNL     1       5.312  49.095  16.035  0.00  0.00    +0.000 HD
ENDBRANCH  14  18
ENDBRANCH   1  17
BRANCH   8  20
ATOM     20  O3  UNL     1      10.550  54.164  24.397  0.00  0.00    +0.000 OA
ATOM     21  H8  UNL     1      10.694  54.417  25.367  0.00  0.00    +0.000 HD
ENDBRANCH   8  20
BRANCH   6  22
ATOM     22  O4  UNL     1      12.613  49.865  24.902  0.00  0.00    +0.000 OA
ATOM     23  H9  UNL     1      13.345  49.288  24.524  0.00  0.00    +0.000 HD
ENDBRANCH   6  22
TORSDOF 4
ENDMDL
MODEL 4
REMARK VINA RESULT:      -5.4      1.187      2.766
REMARK  Name = .\Apigenin.pdb
REMARK  4 active torsions:
REMARK  status: ('A' for Active; 'I' for Inactive)
REMARK    1  A    between atoms: C3_3  and  O5_20
REMARK    2  A    between atoms: C6_6  and  C7_7
REMARK    3  A    between atoms: C11_12  and  O4_19
REMARK    4  A    between atoms: C13_14  and  O3_18
REMARK                            x       y       z     vdW  Elec       q    Type
REMARK                         _______ _______ _______ _____ _____    ______ ____
ROOT
ATOM      1  C7  UNL     1       9.524  49.689  20.829  0.00  0.00    +0.000 A 
ATOM      2  C8  UNL     1      10.346  48.712  21.413  0.00  0.00    +0.000 A 
ATOM      3  C9  UNL     1      11.093  49.021  22.551  0.00  0.00    +0.000 A 
ATOM      4  O1  UNL     1      11.816  48.119  23.042  0.00  0.00    +0.000 OA
ATOM      5  C10 UNL     1      11.022  50.319  23.113  0.00  0.00    +0.000 A 
ATOM      6  C11 UNL     1      11.737  50.756  24.273  0.00  0.00    +0.000 A 
ATOM      7  C12 UNL     1      11.576  52.071  24.727  0.00  0.00    +0.000 A 
ATOM      8  C13 UNL     1      10.729  52.966  24.069  0.00  0.00    +0.000 A 
ATOM      9  C14 UNL     1      10.029  52.551  22.940  0.00  0.00    +0.000 A 
ATOM     10  C15 UNL     1      10.167  51.247  22.460  0.00  0.00    +0.000 A 
ATOM     11  O2  UNL     1       9.477  50.898  21.379  0.00  0.00    +0.000 OA
ENDROOT
BRANCH   1  17
ATOM     12  C1  UNL     1       8.889  50.123  18.392  0.00  0.00    +0.000 A 
ATOM     13  C2  UNL     1       8.084  49.851  17.281  0.00  0.00    +0.000 A 
ATOM     14  C3  UNL     1       7.070  48.891  17.361  0.00  0.00    +0.000 A 
ATOM     15  C4  UNL     1       6.863  48.204  18.558  0.00  0.00    +0.000 A 
ATOM     16  C5  UNL     1       7.664  48.472  19.672  0.00  0.00    +0.000 A 
ATOM     17  C6  UNL     1       8.692  49.436  19.611  0.00  0.00    +0.000 A 
BRANCH  14  18
ATOM     18  O5  UNL     1       6.263  48.613  16.260  0.00  0.00    +0.000 OA
ATOM     19  H10 UNL     1       6.260  47.699  15.822  0.00  0.00    +0.000 HD
ENDBRANCH  14  18
ENDBRANCH   1  17
BRANCH   8  20
ATOM     20  O3  UNL     1      10.578  54.271  24.531  0.00  0.00    +0.000 OA
ATOM     21  H8  UNL     1      10.177  54.997  23.949  0.00  0.00    +0.000 HD
ENDBRANCH   8  20
BRANCH   6  22
ATOM     22  O4  UNL     1      12.612  49.956  25.016  0.00  0.00    +0.000 OA
ATOM     23  H9  UNL     1      12.673  49.909  26.019  0.00  0.00    +0.000 HD
ENDBRANCH   6  22
TORSDOF 4
ENDMDL
MODEL 5
REMARK VINA RESULT:      -5.4      1.999      6.942
REMARK  Name = .\Apigenin.pdb
REMARK  4 active torsions:
REMARK  status: ('A' for Active; 'I' for Inactive)
REMARK    1  A    between atoms: C3_3  and  O5_20
REMARK    2  A    between atoms: C6_6  and  C7_7
REMARK    3  A    between atoms: C11_12  and  O4_19
REMARK    4  A    between atoms: C13_14  and  O3_18
REMARK                            x       y       z     vdW  Elec       q    Type
REMARK                         _______ _______ _______ _____ _____    ______ ____
ROOT
ATOM      1  C7  UNL     1      10.175  50.696  22.341  0.00  0.00    +0.000 A 
ATOM      2  C8  UNL     1       9.676  49.492  22.864  0.00  0.00    +0.000 A 
ATOM      3  C9  UNL     1       8.859  48.678  22.079  0.00  0.00    +0.000 A 
ATOM      4  O1  UNL     1       8.433  47.609  22.585  0.00  0.00    +0.000 OA
ATOM      5  C10 UNL     1       8.533  49.067  20.757  0.00  0.00    +0.000 A 
ATOM      6  C11 UNL     1       7.708  48.320  19.856  0.00  0.00    +0.000 A 
ATOM      7  C12 UNL     1       7.464  48.819  18.571  0.00  0.00    +0.000 A 
ATOM      8  C13 UNL     1       8.012  50.032  18.149  0.00  0.00    +0.000 A 
ATOM      9  C14 UNL     1       8.816  50.766  19.016  0.00  0.00    +0.000 A 
ATOM     10  C15 UNL     1       9.079  50.298  20.305  0.00  0.00    +0.000 A 
ATOM     11  O2  UNL     1       9.852  51.034  21.097  0.00  0.00    +0.000 OA
ENDROOT
BRANCH   1  17
ATOM     12  C1  UNL     1      12.301  51.225  23.657  0.00  0.00    +0.000 A 
ATOM     13  C2  UNL     1      13.089  52.130  24.376  0.00  0.00    +0.000 A 
ATOM     14  C3  UNL     1      12.654  53.444  24.573  0.00  0.00    +0.000 A 
ATOM     15  C4  UNL     1      11.427  53.851  24.047  0.00  0.00    +0.000 A 
ATOM     16  C5  UNL     1      10.635  52.952  23.328  0.00  0.00    +0.000 A 
ATOM     17  C6  UNL     1      11.056  51.622  23.118  0.00  0.00    +0.000 A 
BRANCH  14  18
ATOM     18  O5  UNL     1      13.431  54.352  25.288  0.00  0.00    +0.000 OA
ATOM     19  H10 UNL     1      13.052  54.872  26.071  0.00  0.00    +0.000 HD
ENDBRANCH  14  18
ENDBRANCH   1  17
BRANCH   8  20
ATOM     20  O3  UNL     1       7.762  50.517  16.867  0.00  0.00    +0.000 OA
ATOM     21  H8  UNL     1       8.302  51.277  16.472  0.00  0.00    +0.000 HD
ENDBRANCH   8  20
BRANCH   6  22
ATOM     22  O4  UNL     1       7.104  47.095  20.162  0.00  0.00    +0.000 OA
ATOM     23  H9  UNL     1       7.303  46.207  19.732  0.00  0.00    +0.000 HD
ENDBRANCH   6  22
TORSDOF 4
ENDMDL
MODEL 6
REMARK VINA RESULT:      -5.1      1.875      7.278
REMARK  Name = .\Apigenin.pdb
REMARK  4 active torsions:
REMARK  status: ('A' for Active; 'I' for Inactive)
REMARK    1  A    between atoms: C3_3  and  O5_20
REMARK    2  A    between atoms: C6_6  and  C7_7
REMARK    3  A    between atoms: C11_12  and  O4_19
REMARK    4  A    between atoms: C13_14  and  O3_18
REMARK                            x       y       z     vdW  Elec       q    Type
REMARK                         _______ _______ _______ _____ _____    ______ ____
ROOT
ATOM      1  C7  UNL     1       9.656  49.504  20.116  0.00  0.00    +0.000 A 
ATOM      2  C8  UNL     1      10.540  49.346  19.037  0.00  0.00    +0.000 A 
ATOM      3  C9  UNL     1      10.096  48.750  17.855  0.00  0.00    +0.000 A 
ATOM      4  O1  UNL     1      10.919  48.628  16.913  0.00  0.00    +0.000 OA
ATOM      5  C10 UNL     1       8.756  48.305  17.748  0.00  0.00    +0.000 A 
ATOM      6  C11 UNL     1       8.184  47.681  16.593  0.00  0.00    +0.000 A 
ATOM      7  C12 UNL     1       6.841  47.287  16.617  0.00  0.00    +0.000 A 
ATOM      8  C13 UNL     1       6.046  47.492  17.747  0.00  0.00    +0.000 A 
ATOM      9  C14 UNL     1       6.592  48.097  18.875  0.00  0.00    +0.000 A 
ATOM     10  C15 UNL     1       7.929  48.502  18.885  0.00  0.00    +0.000 A 
ATOM     11  O2  UNL     1       8.405  49.076  19.985  0.00  0.00    +0.000 OA
ENDROOT
BRANCH   1  17
ATOM     12  C1  UNL     1      10.941  49.515  22.326  0.00  0.00    +0.000 A 
ATOM     13  C2  UNL     1      11.282  50.144  23.527  0.00  0.00    +0.000 A 
ATOM     14  C3  UNL     1      10.749  51.397  23.845  0.00  0.00    +0.000 A 
ATOM     15  C4  UNL     1       9.872  52.019  22.955  0.00  0.00    +0.000 A 
ATOM     16  C5  UNL     1       9.527  51.396  21.754  0.00  0.00    +0.000 A 
ATOM     17  C6  UNL     1      10.055  50.132  21.414  0.00  0.00    +0.000 A 
BRANCH  14  18
ATOM     18  O5  UNL     1      11.082  52.031  25.039  0.00  0.00    +0.000 OA
ATOM     19  H10 UNL     1      10.592  52.861  25.354  0.00  0.00    +0.000 HD
ENDBRANCH  14  18
ENDBRANCH   1  17
BRANCH   8  20
ATOM     20  O3  UNL     1       4.711  47.095  17.758  0.00  0.00    +0.000 OA
ATOM     21  H8  UNL     1       4.326  46.505  17.030  0.00  0.00    +0.000 HD
ENDBRANCH   8  20
BRANCH   6  22
ATOM     22  O4  UNL     1       8.876  47.423  15.404  0.00  0.00    +0.000 OA
ATOM     23  H9  UNL     1       9.691  47.909  15.070  0.00  0.00    +0.000 HD
ENDBRANCH   6  22
TORSDOF 4
ENDMDL
MODEL 7
REMARK VINA RESULT:      -4.9      1.638      7.030
REMARK  Name = .\Apigenin.pdb
REMARK  4 active torsions:
REMARK  status: ('A' for Active; 'I' for Inactive)
REMARK    1  A    between atoms: C3_3  and  O5_20
REMARK    2  A    between atoms: C6_6  and  C7_7
REMARK    3  A    between atoms: C11_12  and  O4_19
REMARK    4  A    between atoms: C13_14  and  O3_18
REMARK                            x       y       z     vdW  Elec       q    Type
REMARK                         _______ _______ _______ _____ _____    ______ ____
ROOT
ATOM      1  C7  UNL     1       9.618  49.507  21.860  0.00  0.00    +0.000 A 
ATOM      2  C8  UNL     1       8.711  48.518  22.274  0.00  0.00    +0.000 A 
ATOM      3  C9  UNL     1       7.771  48.015  21.374  0.00  0.00    +0.000 A 
ATOM      4  O1  UNL     1       6.977  47.131  21.786  0.00  0.00    +0.000 OA
ATOM      5  C10 UNL     1       7.730  48.503  20.046  0.00  0.00    +0.000 A 
ATOM      6  C11 UNL     1       6.816  48.068  19.034  0.00  0.00    +0.000 A 
ATOM      7  C12 UNL     1       6.883  48.635  17.755  0.00  0.00    +0.000 A 
ATOM      8  C13 UNL     1       7.827  49.616  17.446  0.00  0.00    +0.000 A 
ATOM      9  C14 UNL     1       8.721  50.046  18.423  0.00  0.00    +0.000 A 
ATOM     10  C15 UNL     1       8.681  49.503  19.708  0.00  0.00    +0.000 A 
ATOM     11  O2  UNL     1       9.556  49.945  20.606  0.00  0.00    +0.000 OA
ENDROOT
BRANCH   1  17
ATOM     12  C1  UNL     1      10.558  51.401  23.294  0.00  0.00    +0.000 A 
ATOM     13  C2  UNL     1      11.556  51.907  24.134  0.00  0.00    +0.000 A 
ATOM     14  C3  UNL     1      12.668  51.124  24.460  0.00  0.00    +0.000 A 
ATOM     15  C4  UNL     1      12.778  49.833  23.942  0.00  0.00    +0.000 A 
ATOM     16  C5  UNL     1      11.785  49.322  23.103  0.00  0.00    +0.000 A 
ATOM     17  C6  UNL     1      10.655  50.096  22.762  0.00  0.00    +0.000 A 
BRANCH  14  18
ATOM     18  O5  UNL     1      13.667  51.619  25.295  0.00  0.00    +0.000 OA
ATOM     19  H10 UNL     1      14.493  52.071  24.922  0.00  0.00    +0.000 HD
ENDBRANCH  14  18
ENDBRANCH   1  17
BRANCH   8  20
ATOM     20  O3  UNL     1       7.884  50.171  16.170  0.00  0.00    +0.000 OA
ATOM     21  H8  UNL     1       7.522  49.680  15.361  0.00  0.00    +0.000 HD
ENDBRANCH   8  20
BRANCH   6  22
ATOM     22  O4  UNL     1       5.828  47.095  19.221  0.00  0.00    +0.000 OA
ATOM     23  H9  UNL     1       5.937  46.218  19.700  0.00  0.00    +0.000 HD
ENDBRANCH   6  22
TORSDOF 4
ENDMDL
MODEL 8
REMARK VINA RESULT:      -4.8      1.630      3.365
REMARK  Name = .\Apigenin.pdb
REMARK  4 active torsions:
REMARK  status: ('A' for Active; 'I' for Inactive)
REMARK    1  A    between atoms: C3_3  and  O5_20
REMARK    2  A    between atoms: C6_6  and  C7_7
REMARK    3  A    between atoms: C11_12  and  O4_19
REMARK    4  A    between atoms: C13_14  and  O3_18
REMARK                            x       y       z     vdW  Elec       q    Type
REMARK                         _______ _______ _______ _____ _____    ______ ____
ROOT
ATOM      1  C7  UNL     1       9.286  48.715  19.313  0.00  0.00    +0.000 A 
ATOM      2  C8  UNL     1      10.207  47.754  19.760  0.00  0.00    +0.000 A 
ATOM      3  C9  UNL     1      10.951  47.989  20.917  0.00  0.00    +0.000 A 
ATOM      4  O1  UNL     1      11.765  47.103  21.282  0.00  0.00    +0.000 OA
ATOM      5  C10 UNL     1      10.777  49.195  21.637  0.00  0.00    +0.000 A 
ATOM      6  C11 UNL     1      11.479  49.550  22.833  0.00  0.00    +0.000 A 
ATOM      7  C12 UNL     1      11.212  50.779  23.449  0.00  0.00    +0.000 A 
ATOM      8  C13 UNL     1      10.272  51.666  22.920  0.00  0.00    +0.000 A 
ATOM      9  C14 UNL     1       9.585  51.330  21.757  0.00  0.00    +0.000 A 
ATOM     10  C15 UNL     1       9.827  50.113  21.117  0.00  0.00    +0.000 A 
ATOM     11  O2  UNL     1       9.145  49.837  20.010  0.00  0.00    +0.000 OA
ENDROOT
BRANCH   1  17
ATOM     12  C1  UNL     1       8.969  48.676  16.777  0.00  0.00    +0.000 A 
ATOM     13  C2  UNL     1       8.147  48.501  15.660  0.00  0.00    +0.000 A 
ATOM     14  C3  UNL     1       6.794  48.186  15.821  0.00  0.00    +0.000 A 
ATOM     15  C4  UNL     1       6.267  48.046  17.105  0.00  0.00    +0.000 A 
ATOM     16  C5  UNL     1       7.083  48.220  18.225  0.00  0.00    +0.000 A 
ATOM     17  C6  UNL     1       8.450  48.538  18.084  0.00  0.00    +0.000 A 
BRANCH  14  18
ATOM     18  O5  UNL     1       5.967  48.010  14.714  0.00  0.00    +0.000 OA
ATOM     19  H10 UNL     1       6.129  48.509  13.847  0.00  0.00    +0.000 HD
ENDBRANCH  14  18
ENDBRANCH   1  17
BRANCH   8  20
ATOM     20  O3  UNL     1      10.016  52.885  23.542  0.00  0.00    +0.000 OA
ATOM     21  H8  UNL     1       9.447  52.945  24.378  0.00  0.00    +0.000 HD
ENDBRANCH   8  20
BRANCH   6  22
ATOM     22  O4  UNL     1      12.441  48.749  23.458  0.00  0.00    +0.000 OA
ATOM     23  H9  UNL     1      12.365  47.764  23.649  0.00  0.00    +0.000 HD
ENDBRANCH   6  22
TORSDOF 4
ENDMDL
MODEL 9
REMARK VINA RESULT:      -4.8      1.137      2.940
REMARK  Name = .\Apigenin.pdb
REMARK  4 active torsions:
REMARK  status: ('A' for Active; 'I' for Inactive)
REMARK    1  A    between atoms: C3_3  and  O5_20
REMARK    2  A    between atoms: C6_6  and  C7_7
REMARK    3  A    between atoms: C11_12  and  O4_19
REMARK    4  A    between atoms: C13_14  and  O3_18
REMARK                            x       y       z     vdW  Elec       q    Type
REMARK                         _______ _______ _______ _____ _____    ______ ____
ROOT
ATOM      1  C7  UNL     1      10.100  49.321  20.979  0.00  0.00    +0.000 A 
ATOM      2  C8  UNL     1      11.176  48.423  21.053  0.00  0.00    +0.000 A 
ATOM      3  C9  UNL     1      12.126  48.558  22.067  0.00  0.00    +0.000 A 
ATOM      4  O1  UNL     1      13.074  47.733  22.097  0.00  0.00    +0.000 OA
ATOM      5  C10 UNL     1      12.004  49.601  23.016  0.00  0.00    +0.000 A 
ATOM      6  C11 UNL     1      12.911  49.843  24.097  0.00  0.00    +0.000 A 
ATOM      7  C12 UNL     1      12.674  50.913  24.969  0.00  0.00    +0.000 A 
ATOM      8  C13 UNL     1      11.569  51.750  24.805  0.00  0.00    +0.000 A 
ATOM      9  C14 UNL     1      10.681  51.523  23.757  0.00  0.00    +0.000 A 
ATOM     10  C15 UNL     1      10.887  50.466  22.869  0.00  0.00    +0.000 A 
ATOM     11  O2  UNL     1      10.012  50.290  21.885  0.00  0.00    +0.000 OA
ENDROOT
BRANCH   1  17
ATOM     12  C1  UNL     1       7.969  48.323  19.981  0.00  0.00    +0.000 A 
ATOM     13  C2  UNL     1       7.003  48.290  18.970  0.00  0.00    +0.000 A 
ATOM     14  C3  UNL     1       7.085  49.169  17.885  0.00  0.00    +0.000 A 
ATOM     15  C4  UNL     1       8.137  50.083  17.816  0.00  0.00    +0.000 A 
ATOM     16  C5  UNL     1       9.105  50.121  18.822  0.00  0.00    +0.000 A 
ATOM     17  C6  UNL     1       9.040  49.243  19.925  0.00  0.00    +0.000 A 
BRANCH  14  18
ATOM     18  O5  UNL     1       6.128  49.143  16.873  0.00  0.00    +0.000 OA
ATOM     19  H10 UNL     1       5.255  48.640  16.983  0.00  0.00    +0.000 HD
ENDBRANCH  14  18
ENDBRANCH   1  17
BRANCH   8  20
ATOM     20  O3  UNL     1      11.344  52.811  25.679  0.00  0.00    +0.000 OA
ATOM     21  H8  UNL     1      10.773  53.604  25.416  0.00  0.00    +0.000 HD
ENDBRANCH   8  20
BRANCH   6  22
ATOM     22  O4  UNL     1      14.051  49.077  24.365  0.00  0.00    +0.000 OA
ATOM     23  H9  UNL     1      14.945  49.157  23.911  0.00  0.00    +0.000 HD
ENDBRANCH   6  22
TORSDOF 4
ENDMDL
