MODEL 1
REMARK VINA RESULT:      23.0      0.000      0.000
REMARK  Name = .\Apigenin.pdb
REMARK  4 active torsions:
REMARK  status: ('A' for Active; 'I' for Inactive)
REMARK    1  A    between atoms: C3_3  and  O5_20
REMARK    2  A    between atoms: C6_6  and  C7_7
REMARK    3  A    between atoms: C11_12  and  O4_19
REMARK    4  A    between atoms: C13_14  and  O3_18
REMARK                            x       y       z     vdW  Elec       q    Type
REMARK                         _______ _______ _______ _____ _____    ______ ____
ROOT
ATOM      1  C7  UNL     1     -14.670  81.323  47.630  0.00  0.00    +0.000 A 
ATOM      2  C8  UNL     1     -14.976  79.992  47.306  0.00  0.00    +0.000 A 
ATOM      3  C9  UNL     1     -16.022  79.713  46.425  0.00  0.00    +0.000 A 
ATOM      4  O1  UNL     1     -16.263  78.507  46.162  0.00  0.00    +0.000 OA
ATOM      5  C10 UNL     1     -16.774  80.772  45.862  0.00  0.00    +0.000 A 
ATOM      6  C11 UNL     1     -17.867  80.613  44.950  0.00  0.00    +0.000 A 
ATOM      7  C12 UNL     1     -18.529  81.748  44.465  0.00  0.00    +0.000 A 
ATOM      8  C13 UNL     1     -18.143  83.033  44.853  0.00  0.00    +0.000 A 
ATOM      9  C14 UNL     1     -17.082  83.197  45.739  0.00  0.00    +0.000 A 
ATOM     10  C15 UNL     1     -16.401  82.088  46.242  0.00  0.00    +0.000 A 
ATOM     11  O2  UNL     1     -15.394  82.296  47.085  0.00  0.00    +0.000 OA
ENDROOT
BRANCH   1  17
ATOM     12  C1  UNL     1     -12.201  81.652  48.200  0.00  0.00    +0.000 A 
ATOM     13  C2  UNL     1     -11.204  82.019  49.110  0.00  0.00    +0.000 A 
ATOM     14  C3  UNL     1     -11.546  82.446  50.397  0.00  0.00    +0.000 A 
ATOM     15  C4  UNL     1     -12.888  82.503  50.771  0.00  0.00    +0.000 A 
ATOM     16  C5  UNL     1     -13.889  82.137  49.867  0.00  0.00    +0.000 A 
ATOM     17  C6  UNL     1     -13.565  81.705  48.564  0.00  0.00    +0.000 A 
BRANCH  14  18
ATOM     18  O5  UNL     1     -10.560  82.813  51.310  0.00  0.00    +0.000 OA
ATOM     19  H10 UNL     1     -10.795  83.219  52.209  0.00  0.00    +0.000 HD
ENDBRANCH  14  18
ENDBRANCH   1  17
BRANCH   8  20
ATOM     20  O3  UNL     1     -18.810  84.153  44.363  0.00  0.00    +0.000 OA
ATOM     21  H8  UNL     1     -18.966  84.287  43.371  0.00  0.00    +0.000 HD
ENDBRANCH   8  20
BRANCH   6  22
ATOM     22  O4  UNL     1     -18.345  79.382  44.488  0.00  0.00    +0.000 OA
ATOM     23  H9  UNL     1     -18.325  78.509  44.987  0.00  0.00    +0.000 HD
ENDBRANCH   6  22
TORSDOF 4
ENDMDL
