MODEL 1
REMARK VINA RESULT:      36.6      0.000      0.000
REMARK  Name = .\Apigenin.pdb
REMARK  4 active torsions:
REMARK  status: ('A' for Active; 'I' for Inactive)
REMARK    1  A    between atoms: C3_3  and  O5_20
REMARK    2  A    between atoms: C6_6  and  C7_7
REMARK    3  A    between atoms: C11_12  and  O4_19
REMARK    4  A    between atoms: C13_14  and  O3_18
REMARK                            x       y       z     vdW  Elec       q    Type
REMARK                         _______ _______ _______ _____ _____    ______ ____
ROOT
ATOM      1  C7  UNL     1     -16.246  71.440  47.641  0.00  0.00    +0.000 A 
ATOM      2  C8  UNL     1     -15.869  72.787  47.765  0.00  0.00    +0.000 A 
ATOM      3  C9  UNL     1     -14.961  73.341  46.861  0.00  0.00    +0.000 A 
ATOM      4  O1  UNL     1     -14.650  74.550  47.008  0.00  0.00    +0.000 OA
ATOM      5  C10 UNL     1     -14.419  72.544  45.824  0.00  0.00    +0.000 A 
ATOM      6  C11 UNL     1     -13.482  72.996  44.840  0.00  0.00    +0.000 A 
ATOM      7  C12 UNL     1     -13.024  72.102  43.864  0.00  0.00    +0.000 A 
ATOM      8  C13 UNL     1     -13.464  70.778  43.831  0.00  0.00    +0.000 A 
ATOM      9  C14 UNL     1     -14.375  70.328  44.783  0.00  0.00    +0.000 A 
ATOM     10  C15 UNL     1     -14.852  71.192  45.770  0.00  0.00    +0.000 A 
ATOM     11  O2  UNL     1     -15.721  70.717  46.657  0.00  0.00    +0.000 OA
ENDROOT
BRANCH   1  17
ATOM     12  C1  UNL     1     -17.629  71.349  49.788  0.00  0.00    +0.000 A 
ATOM     13  C2  UNL     1     -18.536  70.685  50.620  0.00  0.00    +0.000 A 
ATOM     14  C3  UNL     1     -19.047  69.436  50.253  0.00  0.00    +0.000 A 
ATOM     15  C4  UNL     1     -18.645  68.853  49.050  0.00  0.00    +0.000 A 
ATOM     16  C5  UNL     1     -17.739  69.512  48.215  0.00  0.00    +0.000 A 
ATOM     17  C6  UNL     1     -17.213  70.773  48.567  0.00  0.00    +0.000 A 
BRANCH  14  18
ATOM     18  O5  UNL     1     -19.950  68.766  51.075  0.00  0.00    +0.000 OA
ATOM     19  H10 UNL     1     -20.236  69.148  51.969  0.00  0.00    +0.000 HD
ENDBRANCH  14  18
ENDBRANCH   1  17
BRANCH   8  20
ATOM     20  O3  UNL     1     -13.000  69.899  42.855  0.00  0.00    +0.000 OA
ATOM     21  H8  UNL     1     -13.633  69.310  42.326  0.00  0.00    +0.000 HD
ENDBRANCH   8  20
BRANCH   6  22
ATOM     22  O4  UNL     1     -12.969  74.295  44.769  0.00  0.00    +0.000 OA
ATOM     23  H9  UNL     1     -12.824  74.836  43.933  0.00  0.00    +0.000 HD
ENDBRANCH   6  22
TORSDOF 4
ENDMDL
