MODEL 1
REMARK VINA RESULT:      -4.0      0.000      0.000
REMARK  Name = .\Caffeine.pdb
REMARK  3 active torsions:
REMARK  status: ('A' for Active; 'I' for Inactive)
REMARK    1  A    between atoms: C1_1  and  N1_2
REMARK    2  A    between atoms: N3_9  and  C8_14
REMARK    3  A    between atoms: N4_12  and  C7_13
REMARK                            x       y       z     vdW  Elec       q    Type
REMARK                         _______ _______ _______ _____ _____    ______ ____
ROOT
ATOM      1  C1  UNL     1      -3.212  55.711  58.846  0.00  0.00    +0.000 C 
ATOM      2  N1  UNL     1      -2.130  56.592  59.273  0.00  0.00    +0.000 N 
ATOM      3  C2  UNL     1      -2.221  57.911  59.573  0.00  0.00    +0.000 C 
ATOM      4  N2  UNL     1      -1.030  58.462  59.921  0.00  0.00    +0.000 NA
ATOM      5  C3  UNL     1      -0.178  57.421  59.829  0.00  0.00    +0.000 C 
ATOM      6  C4  UNL     1      -0.829  56.301  59.438  0.00  0.00    +0.000 C 
ATOM      7  C5  UNL     1      -0.136  55.112  59.253  0.00  0.00    +0.000 C 
ATOM      8  O1  UNL     1      -0.739  54.073  58.868  0.00  0.00    +0.000 OA
ATOM      9  N3  UNL     1       1.220  55.105  59.490  0.00  0.00    +0.000 N 
ATOM     10  C6  UNL     1       1.869  56.272  59.859  0.00  0.00    +0.000 C 
ATOM     11  O2  UNL     1       3.124  56.272  60.008  0.00  0.00    +0.000 OA
ATOM     12  N4  UNL     1       1.162  57.440  60.060  0.00  0.00    +0.000 N 
ATOM     13  C7  UNL     1       1.844  58.687  60.429  0.00  0.00    +0.000 C 
ATOM     14  C8  UNL     1       1.996  53.874  59.267  0.00  0.00    +0.000 C 
ENDROOT
TORSDOF 0
ENDMDL
MODEL 2
REMARK VINA RESULT:      -4.0      1.122      3.464
REMARK  Name = .\Caffeine.pdb
REMARK  3 active torsions:
REMARK  status: ('A' for Active; 'I' for Inactive)
REMARK    1  A    between atoms: C1_1  and  N1_2
REMARK    2  A    between atoms: N3_9  and  C8_14
REMARK    3  A    between atoms: N4_12  and  C7_13
REMARK                            x       y       z     vdW  Elec       q    Type
REMARK                         _______ _______ _______ _____ _____    ______ ____
ROOT
ATOM      1  C1  UNL     1       1.339  58.643  60.338  0.00  0.00    +0.000 C 
ATOM      2  N1  UNL     1       0.071  58.023  59.967  0.00  0.00    +0.000 N 
ATOM      3  C2  UNL     1      -1.133  58.635  59.852  0.00  0.00    +0.000 C 
ATOM      4  N2  UNL     1      -2.133  57.784  59.507  0.00  0.00    +0.000 NA
ATOM      5  C3  UNL     1      -1.498  56.598  59.406  0.00  0.00    +0.000 C 
ATOM      6  C4  UNL     1      -0.181  56.735  59.683  0.00  0.00    +0.000 C 
ATOM      7  C5  UNL     1       0.661  55.631  59.663  0.00  0.00    +0.000 C 
ATOM      8  O1  UNL     1       1.885  55.754  59.942  0.00  0.00    +0.000 OA
ATOM      9  N3  UNL     1       0.120  54.405  59.344  0.00  0.00    +0.000 N 
ATOM     10  C6  UNL     1      -1.237  54.286  59.094  0.00  0.00    +0.000 C 
ATOM     11  O2  UNL     1      -1.736  53.147  58.868  0.00  0.00    +0.000 OA
ATOM     12  N4  UNL     1      -2.055  55.397  59.097  0.00  0.00    +0.000 N 
ATOM     13  C7  UNL     1      -3.499  55.277  58.856  0.00  0.00    +0.000 C 
ATOM     14  C8  UNL     1       0.973  53.205  59.350  0.00  0.00    +0.000 C 
ENDROOT
TORSDOF 0
ENDMDL
MODEL 3
REMARK VINA RESULT:      -3.9      2.775      4.506
REMARK  Name = .\Caffeine.pdb
REMARK  3 active torsions:
REMARK  status: ('A' for Active; 'I' for Inactive)
REMARK    1  A    between atoms: C1_1  and  N1_2
REMARK    2  A    between atoms: N3_9  and  C8_14
REMARK    3  A    between atoms: N4_12  and  C7_13
REMARK                            x       y       z     vdW  Elec       q    Type
REMARK                         _______ _______ _______ _____ _____    ______ ____
ROOT
ATOM      1  C1  UNL     1       1.664  55.907  55.437  0.00  0.00    +0.000 C 
ATOM      2  N1  UNL     1       0.301  55.882  55.958  0.00  0.00    +0.000 N 
ATOM      3  C2  UNL     1      -0.775  55.276  55.400  0.00  0.00    +0.000 C 
ATOM      4  N2  UNL     1      -1.916  55.448  56.116  0.00  0.00    +0.000 NA
ATOM      5  C3  UNL     1      -1.505  56.195  57.161  0.00  0.00    +0.000 C 
ATOM      6  C4  UNL     1      -0.181  56.460  57.071  0.00  0.00    +0.000 C 
ATOM      7  C5  UNL     1       0.449  57.239  58.032  0.00  0.00    +0.000 C 
ATOM      8  O1  UNL     1       1.679  57.504  57.937  0.00  0.00    +0.000 OA
ATOM      9  N3  UNL     1      -0.307  57.718  59.079  0.00  0.00    +0.000 N 
ATOM     10  C6  UNL     1      -1.666  57.458  59.134  0.00  0.00    +0.000 C 
ATOM     11  O2  UNL     1      -2.364  57.958  60.061  0.00  0.00    +0.000 OA
ATOM     12  N4  UNL     1      -2.272  56.664  58.182  0.00  0.00    +0.000 N 
ATOM     13  C7  UNL     1      -3.716  56.402  58.218  0.00  0.00    +0.000 C 
ATOM     14  C8  UNL     1       0.317  58.579  60.098  0.00  0.00    +0.000 C 
ENDROOT
TORSDOF 0
ENDMDL
MODEL 4
REMARK VINA RESULT:      -3.9      1.734      4.624
REMARK  Name = .\Caffeine.pdb
REMARK  3 active torsions:
REMARK  status: ('A' for Active; 'I' for Inactive)
REMARK    1  A    between atoms: C1_1  and  N1_2
REMARK    2  A    between atoms: N3_9  and  C8_14
REMARK    3  A    between atoms: N4_12  and  C7_13
REMARK                            x       y       z     vdW  Elec       q    Type
REMARK                         _______ _______ _______ _____ _____    ______ ____
ROOT
ATOM      1  C1  UNL     1       3.293  59.061  59.771  0.00  0.00    +0.000 C 
ATOM      2  N1  UNL     1       2.769  57.699  59.754  0.00  0.00    +0.000 N 
ATOM      3  C2  UNL     1       3.487  56.549  59.714  0.00  0.00    +0.000 C 
ATOM      4  N2  UNL     1       2.710  55.436  59.688  0.00  0.00    +0.000 NA
ATOM      5  C3  UNL     1       1.460  55.941  59.716  0.00  0.00    +0.000 C 
ATOM      6  C4  UNL     1       1.489  57.293  59.752  0.00  0.00    +0.000 C 
ATOM      7  C5  UNL     1       0.308  58.023  59.760  0.00  0.00    +0.000 C 
ATOM      8  O1  UNL     1       0.335  59.285  59.772  0.00  0.00    +0.000 OA
ATOM      9  N3  UNL     1      -0.884  57.334  59.742  0.00  0.00    +0.000 N 
ATOM     10  C6  UNL     1      -0.888  55.950  59.675  0.00  0.00    +0.000 C 
ATOM     11  O2  UNL     1      -1.985  55.329  59.590  0.00  0.00    +0.000 OA
ATOM     12  N4  UNL     1       0.295  55.240  59.689  0.00  0.00    +0.000 N 
ATOM     13  C7  UNL     1       0.302  53.774  59.595  0.00  0.00    +0.000 C 
ATOM     14  C8  UNL     1      -2.157  58.073  59.710  0.00  0.00    +0.000 C 
ENDROOT
TORSDOF 0
ENDMDL
MODEL 5
REMARK VINA RESULT:      -3.8      2.575      3.986
REMARK  Name = .\Caffeine.pdb
REMARK  3 active torsions:
REMARK  status: ('A' for Active; 'I' for Inactive)
REMARK    1  A    between atoms: C1_1  and  N1_2
REMARK    2  A    between atoms: N3_9  and  C8_14
REMARK    3  A    between atoms: N4_12  and  C7_13
REMARK                            x       y       z     vdW  Elec       q    Type
REMARK                         _______ _______ _______ _____ _____    ______ ____
ROOT
ATOM      1  C1  UNL     1       0.815  55.194  55.179  0.00  0.00    +0.000 C 
ATOM      2  N1  UNL     1       0.903  56.078  56.337  0.00  0.00    +0.000 N 
ATOM      3  C2  UNL     1       2.020  56.669  56.829  0.00  0.00    +0.000 C 
ATOM      4  N2  UNL     1       1.782  57.423  57.933  0.00  0.00    +0.000 NA
ATOM      5  C3  UNL     1       0.453  57.282  58.113  0.00  0.00    +0.000 C 
ATOM      6  C4  UNL     1      -0.077  56.476  57.164  0.00  0.00    +0.000 C 
ATOM      7  C5  UNL     1      -1.432  56.172  57.174  0.00  0.00    +0.000 C 
ATOM      8  O1  UNL     1      -1.922  55.404  56.302  0.00  0.00    +0.000 OA
ATOM      9  N3  UNL     1      -2.215  56.722  58.165  0.00  0.00    +0.000 N 
ATOM     10  C6  UNL     1      -1.643  57.519  59.143  0.00  0.00    +0.000 C 
ATOM     11  O2  UNL     1      -2.357  57.963  60.086  0.00  0.00    +0.000 OA
ATOM     12  N4  UNL     1      -0.299  57.828  59.105  0.00  0.00    +0.000 N 
ATOM     13  C7  UNL     1       0.320  58.653  60.151  0.00  0.00    +0.000 C 
ATOM     14  C8  UNL     1      -3.648  56.392  58.233  0.00  0.00    +0.000 C 
ENDROOT
TORSDOF 0
ENDMDL
MODEL 6
REMARK VINA RESULT:      -3.8      2.627      3.500
REMARK  Name = .\Caffeine.pdb
REMARK  3 active torsions:
REMARK  status: ('A' for Active; 'I' for Inactive)
REMARK    1  A    between atoms: C1_1  and  N1_2
REMARK    2  A    between atoms: N3_9  and  C8_14
REMARK    3  A    between atoms: N4_12  and  C7_13
REMARK                            x       y       z     vdW  Elec       q    Type
REMARK                         _______ _______ _______ _____ _____    ______ ____
ROOT
ATOM      1  C1  UNL     1      -4.071  55.632  58.392  0.00  0.00    +0.000 C 
ATOM      2  N1  UNL     1      -2.886  55.741  57.548  0.00  0.00    +0.000 N 
ATOM      3  C2  UNL     1      -2.701  55.187  56.325  0.00  0.00    +0.000 C 
ATOM      4  N2  UNL     1      -1.479  55.454  55.796  0.00  0.00    +0.000 NA
ATOM      5  C3  UNL     1      -0.898  56.211  56.750  0.00  0.00    +0.000 C 
ATOM      6  C4  UNL     1      -1.733  56.383  57.801  0.00  0.00    +0.000 C 
ATOM      7  C5  UNL     1      -1.327  57.111  58.911  0.00  0.00    +0.000 C 
ATOM      8  O1  UNL     1      -2.098  57.253  59.900  0.00  0.00    +0.000 OA
ATOM      9  N3  UNL     1      -0.064  57.659  58.904  0.00  0.00    +0.000 N 
ATOM     10  C6  UNL     1       0.783  57.444  57.830  0.00  0.00    +0.000 C 
ATOM     11  O2  UNL     1       1.964  57.893  57.861  0.00  0.00    +0.000 OA
ATOM     12  N4  UNL     1       0.356  56.736  56.725  0.00  0.00    +0.000 N 
ATOM     13  C7  UNL     1       1.254  56.482  55.591  0.00  0.00    +0.000 C 
ATOM     14  C8  UNL     1       0.417  58.404  60.079  0.00  0.00    +0.000 C 
ENDROOT
TORSDOF 0
ENDMDL
MODEL 7
REMARK VINA RESULT:      -3.8      2.555      2.776
REMARK  Name = .\Caffeine.pdb
REMARK  3 active torsions:
REMARK  status: ('A' for Active; 'I' for Inactive)
REMARK    1  A    between atoms: C1_1  and  N1_2
REMARK    2  A    between atoms: N3_9  and  C8_14
REMARK    3  A    between atoms: N4_12  and  C7_13
REMARK                            x       y       z     vdW  Elec       q    Type
REMARK                         _______ _______ _______ _____ _____    ______ ____
ROOT
ATOM      1  C1  UNL     1      -2.102  57.333  59.263  0.00  0.00    +0.000 C 
ATOM      2  N1  UNL     1      -0.737  57.845  59.319  0.00  0.00    +0.000 N 
ATOM      3  C2  UNL     1      -0.223  58.699  60.238  0.00  0.00    +0.000 C 
ATOM      4  N2  UNL     1       1.080  59.006  60.012  0.00  0.00    +0.000 NA
ATOM      5  C3  UNL     1       1.367  58.298  58.901  0.00  0.00    +0.000 C 
ATOM      6  C4  UNL     1       0.284  57.604  58.480  0.00  0.00    +0.000 C 
ATOM      7  C5  UNL     1       0.349  56.824  57.334  0.00  0.00    +0.000 C 
ATOM      8  O1  UNL     1      -0.667  56.194  56.930  0.00  0.00    +0.000 OA
ATOM      9  N3  UNL     1       1.543  56.769  56.651  0.00  0.00    +0.000 N 
ATOM     10  C6  UNL     1       2.629  57.511  57.084  0.00  0.00    +0.000 C 
ATOM     11  O2  UNL     1       3.700  57.507  56.413  0.00  0.00    +0.000 OA
ATOM     12  N4  UNL     1       2.554  58.265  58.237  0.00  0.00    +0.000 N 
ATOM     13  C7  UNL     1       3.692  59.074  58.692  0.00  0.00    +0.000 C 
ATOM     14  C8  UNL     1       1.641  55.983  55.409  0.00  0.00    +0.000 C 
ENDROOT
TORSDOF 0
ENDMDL
MODEL 8
REMARK VINA RESULT:      -3.7      1.757      3.735
REMARK  Name = .\Caffeine.pdb
REMARK  3 active torsions:
REMARK  status: ('A' for Active; 'I' for Inactive)
REMARK    1  A    between atoms: C1_1  and  N1_2
REMARK    2  A    between atoms: N3_9  and  C8_14
REMARK    3  A    between atoms: N4_12  and  C7_13
REMARK                            x       y       z     vdW  Elec       q    Type
REMARK                         _______ _______ _______ _____ _____    ______ ____
ROOT
ATOM      1  C1  UNL     1       3.930  55.231  59.875  0.00  0.00    +0.000 C 
ATOM      2  N1  UNL     1       2.948  56.310  59.869  0.00  0.00    +0.000 N 
ATOM      3  C2  UNL     1       3.194  57.639  59.983  0.00  0.00    +0.000 C 
ATOM      4  N2  UNL     1       2.066  58.394  59.962  0.00  0.00    +0.000 NA
ATOM      5  C3  UNL     1       1.090  57.474  59.825  0.00  0.00    +0.000 C 
ATOM      6  C4  UNL     1       1.611  56.226  59.772  0.00  0.00    +0.000 C 
ATOM      7  C5  UNL     1       0.780  55.120  59.657  0.00  0.00    +0.000 C 
ATOM      8  O1  UNL     1       1.264  53.955  59.629  0.00  0.00    +0.000 OA
ATOM      9  N3  UNL     1      -0.579  55.331  59.587  0.00  0.00    +0.000 N 
ATOM     10  C6  UNL     1      -1.090  56.616  59.674  0.00  0.00    +0.000 C 
ATOM     11  O2  UNL     1      -2.341  56.795  59.677  0.00  0.00    +0.000 OA
ATOM     12  N4  UNL     1      -0.249  57.705  59.766  0.00  0.00    +0.000 N 
ATOM     13  C7  UNL     1      -0.781  59.069  59.882  0.00  0.00    +0.000 C 
ATOM     14  C8  UNL     1      -1.496  54.182  59.505  0.00  0.00    +0.000 C 
ENDROOT
TORSDOF 0
ENDMDL
MODEL 9
REMARK VINA RESULT:      -3.7      1.787      3.137
REMARK  Name = .\Caffeine.pdb
REMARK  3 active torsions:
REMARK  status: ('A' for Active; 'I' for Inactive)
REMARK    1  A    between atoms: C1_1  and  N1_2
REMARK    2  A    between atoms: N3_9  and  C8_14
REMARK    3  A    between atoms: N4_12  and  C7_13
REMARK                            x       y       z     vdW  Elec       q    Type
REMARK                         _______ _______ _______ _____ _____    ______ ____
ROOT
ATOM      1  C1  UNL     1      -2.198  57.911  59.727  0.00  0.00    +0.000 C 
ATOM      2  N1  UNL     1      -1.221  56.831  59.624  0.00  0.00    +0.000 N 
ATOM      3  C2  UNL     1      -1.479  55.502  59.550  0.00  0.00    +0.000 C 
ATOM      4  N2  UNL     1      -0.355  54.744  59.482  0.00  0.00    +0.000 NA
ATOM      5  C3  UNL     1       0.631  55.663  59.513  0.00  0.00    +0.000 C 
ATOM      6  C4  UNL     1       0.119  56.913  59.601  0.00  0.00    +0.000 C 
ATOM      7  C5  UNL     1       0.960  58.015  59.674  0.00  0.00    +0.000 C 
ATOM      8  O1  UNL     1       0.484  59.179  59.777  0.00  0.00    +0.000 OA
ATOM      9  N3  UNL     1       2.320  57.800  59.639  0.00  0.00    +0.000 N 
ATOM     10  C6  UNL     1       2.820  56.509  59.579  0.00  0.00    +0.000 C 
ATOM     11  O2  UNL     1       4.069  56.318  59.617  0.00  0.00    +0.000 OA
ATOM     12  N4  UNL     1       1.970  55.427  59.486  0.00  0.00    +0.000 N 
ATOM     13  C7  UNL     1       2.490  54.054  59.446  0.00  0.00    +0.000 C 
ATOM     14  C8  UNL     1       3.245  58.940  59.753  0.00  0.00    +0.000 C 
ENDROOT
TORSDOF 0
ENDMDL
