MODEL 1
REMARK VINA RESULT:      -4.4      0.000      0.000
REMARK  Name = .\Caffeine.pdb
REMARK  3 active torsions:
REMARK  status: ('A' for Active; 'I' for Inactive)
REMARK    1  A    between atoms: C1_1  and  N1_2
REMARK    2  A    between atoms: N3_9  and  C8_14
REMARK    3  A    between atoms: N4_12  and  C7_13
REMARK                            x       y       z     vdW  Elec       q    Type
REMARK                         _______ _______ _______ _____ _____    ______ ____
ROOT
ATOM      1  C1  UNL     1       1.170  59.771  78.964  0.00  0.00    +0.000 C 
ATOM      2  N1  UNL     1       2.254  59.864  79.936  0.00  0.00    +0.000 N 
ATOM      3  C2  UNL     1       2.897  58.835  80.542  0.00  0.00    +0.000 C 
ATOM      4  N2  UNL     1       3.853  59.244  81.416  0.00  0.00    +0.000 NA
ATOM      5  C3  UNL     1       3.784  60.588  81.330  0.00  0.00    +0.000 C 
ATOM      6  C4  UNL     1       2.828  60.964  80.449  0.00  0.00    +0.000 C 
ATOM      7  C5  UNL     1       2.569  62.310  80.223  0.00  0.00    +0.000 C 
ATOM      8  O1  UNL     1       1.664  62.661  79.418  0.00  0.00    +0.000 OA
ATOM      9  N3  UNL     1       3.317  63.241  80.908  0.00  0.00    +0.000 N 
ATOM     10  C6  UNL     1       4.269  62.831  81.827  0.00  0.00    +0.000 C 
ATOM     11  O2  UNL     1       4.903  63.692  82.501  0.00  0.00    +0.000 OA
ATOM     12  N4  UNL     1       4.529  61.490  82.024  0.00  0.00    +0.000 N 
ATOM     13  C7  UNL     1       5.519  61.045  83.012  0.00  0.00    +0.000 C 
ATOM     14  C8  UNL     1       3.045  64.676  80.725  0.00  0.00    +0.000 C 
ENDROOT
TORSDOF 0
ENDMDL
MODEL 2
REMARK VINA RESULT:      -4.3      1.534      3.652
REMARK  Name = .\Caffeine.pdb
REMARK  3 active torsions:
REMARK  status: ('A' for Active; 'I' for Inactive)
REMARK    1  A    between atoms: C1_1  and  N1_2
REMARK    2  A    between atoms: N3_9  and  C8_14
REMARK    3  A    between atoms: N4_12  and  C7_13
REMARK                            x       y       z     vdW  Elec       q    Type
REMARK                         _______ _______ _______ _____ _____    ______ ____
ROOT
ATOM      1  C1  UNL     1       3.062  64.739  80.919  0.00  0.00    +0.000 C 
ATOM      2  N1  UNL     1       3.577  63.488  81.464  0.00  0.00    +0.000 N 
ATOM      3  C2  UNL     1       4.524  63.344  82.424  0.00  0.00    +0.000 C 
ATOM      4  N2  UNL     1       4.806  62.046  82.706  0.00  0.00    +0.000 NA
ATOM      5  C3  UNL     1       3.985  61.373  81.875  0.00  0.00    +0.000 C 
ATOM      6  C4  UNL     1       3.250  62.229  81.128  0.00  0.00    +0.000 C 
ATOM      7  C5  UNL     1       2.354  61.749  80.182  0.00  0.00    +0.000 C 
ATOM      8  O1  UNL     1       1.685  62.547  79.471  0.00  0.00    +0.000 OA
ATOM      9  N3  UNL     1       2.227  60.385  80.039  0.00  0.00    +0.000 N 
ATOM     10  C6  UNL     1       3.012  59.529  80.795  0.00  0.00    +0.000 C 
ATOM     11  O2  UNL     1       2.938  58.281  80.609  0.00  0.00    +0.000 OA
ATOM     12  N4  UNL     1       3.882  60.023  81.744  0.00  0.00    +0.000 N 
ATOM     13  C7  UNL     1       4.735  59.125  82.534  0.00  0.00    +0.000 C 
ATOM     14  C8  UNL     1       1.316  59.837  79.021  0.00  0.00    +0.000 C 
ENDROOT
TORSDOF 0
ENDMDL
MODEL 3
REMARK VINA RESULT:      -4.2      1.686      3.859
REMARK  Name = .\Caffeine.pdb
REMARK  3 active torsions:
REMARK  status: ('A' for Active; 'I' for Inactive)
REMARK    1  A    between atoms: C1_1  and  N1_2
REMARK    2  A    between atoms: N3_9  and  C8_14
REMARK    3  A    between atoms: N4_12  and  C7_13
REMARK                            x       y       z     vdW  Elec       q    Type
REMARK                         _______ _______ _______ _____ _____    ______ ____
ROOT
ATOM      1  C1  UNL     1       3.464  63.646  81.547  0.00  0.00    +0.000 C 
ATOM      2  N1  UNL     1       3.750  62.235  81.786  0.00  0.00    +0.000 N 
ATOM      3  C2  UNL     1       4.624  61.721  82.687  0.00  0.00    +0.000 C 
ATOM      4  N2  UNL     1       4.682  60.364  82.659  0.00  0.00    +0.000 NA
ATOM      5  C3  UNL     1       3.796  60.045  81.694  0.00  0.00    +0.000 C 
ATOM      6  C4  UNL     1       3.238  61.159  81.167  0.00  0.00    +0.000 C 
ATOM      7  C5  UNL     1       2.313  61.064  80.136  0.00  0.00    +0.000 C 
ATOM      8  O1  UNL     1       1.809  62.103  79.629  0.00  0.00    +0.000 OA
ATOM      9  N3  UNL     1       1.974  59.809  79.679  0.00  0.00    +0.000 N 
ATOM     10  C6  UNL     1       2.581  58.685  80.215  0.00  0.00    +0.000 C 
ATOM     11  O2  UNL     1       2.315  57.543  79.743  0.00  0.00    +0.000 OA
ATOM     12  N4  UNL     1       3.483  58.797  81.253  0.00  0.00    +0.000 N 
ATOM     13  C7  UNL     1       4.149  57.613  81.812  0.00  0.00    +0.000 C 
ATOM     14  C8  UNL     1       1.026  59.668  78.561  0.00  0.00    +0.000 C 
ENDROOT
TORSDOF 0
ENDMDL
MODEL 4
REMARK VINA RESULT:      -4.1      1.133      3.396
REMARK  Name = .\Caffeine.pdb
REMARK  3 active torsions:
REMARK  status: ('A' for Active; 'I' for Inactive)
REMARK    1  A    between atoms: C1_1  and  N1_2
REMARK    2  A    between atoms: N3_9  and  C8_14
REMARK    3  A    between atoms: N4_12  and  C7_13
REMARK                            x       y       z     vdW  Elec       q    Type
REMARK                         _______ _______ _______ _____ _____    ______ ____
ROOT
ATOM      1  C1  UNL     1       5.497  59.102  83.243  0.00  0.00    +0.000 C 
ATOM      2  N1  UNL     1       4.433  59.094  82.244  0.00  0.00    +0.000 N 
ATOM      3  C2  UNL     1       3.849  58.007  81.681  0.00  0.00    +0.000 C 
ATOM      4  N2  UNL     1       2.898  58.326  80.767  0.00  0.00    +0.000 NA
ATOM      5  C3  UNL     1       2.906  59.674  80.781  0.00  0.00    +0.000 C 
ATOM      6  C4  UNL     1       3.824  60.139  81.660  0.00  0.00    +0.000 C 
ATOM      7  C5  UNL     1       4.020  61.505  81.818  0.00  0.00    +0.000 C 
ATOM      8  O1  UNL     1       4.890  61.938  82.622  0.00  0.00    +0.000 OA
ATOM      9  N3  UNL     1       3.248  62.364  81.068  0.00  0.00    +0.000 N 
ATOM     10  C6  UNL     1       2.337  61.864  80.153  0.00  0.00    +0.000 C 
ATOM     11  O2  UNL     1       1.682  62.659  79.421  0.00  0.00    +0.000 OA
ATOM     12  N4  UNL     1       2.140  60.504  80.024  0.00  0.00    +0.000 N 
ATOM     13  C7  UNL     1       1.193  59.964  79.040  0.00  0.00    +0.000 C 
ATOM     14  C8  UNL     1       3.453  63.818  81.179  0.00  0.00    +0.000 C 
ENDROOT
TORSDOF 0
ENDMDL
MODEL 5
REMARK VINA RESULT:      -4.0      1.558      2.072
REMARK  Name = .\Caffeine.pdb
REMARK  3 active torsions:
REMARK  status: ('A' for Active; 'I' for Inactive)
REMARK    1  A    between atoms: C1_1  and  N1_2
REMARK    2  A    between atoms: N3_9  and  C8_14
REMARK    3  A    between atoms: N4_12  and  C7_13
REMARK                            x       y       z     vdW  Elec       q    Type
REMARK                         _______ _______ _______ _____ _____    ______ ____
ROOT
ATOM      1  C1  UNL     1       1.115  59.320  78.410  0.00  0.00    +0.000 C 
ATOM      2  N1  UNL     1       1.997  58.812  79.455  0.00  0.00    +0.000 N 
ATOM      3  C2  UNL     1       2.269  57.513  79.733  0.00  0.00    +0.000 C 
ATOM      4  N2  UNL     1       3.118  57.358  80.781  0.00  0.00    +0.000 NA
ATOM      5  C3  UNL     1       3.373  58.629  81.153  0.00  0.00    +0.000 C 
ATOM      6  C4  UNL     1       2.703  59.502  80.366  0.00  0.00    +0.000 C 
ATOM      7  C5  UNL     1       2.801  60.869  80.588  0.00  0.00    +0.000 C 
ATOM      8  O1  UNL     1       2.160  61.683  79.868  0.00  0.00    +0.000 OA
ATOM      9  N3  UNL     1       3.604  61.305  81.618  0.00  0.00    +0.000 N 
ATOM     10  C6  UNL     1       4.256  60.391  82.429  0.00  0.00    +0.000 C 
ATOM     11  O2  UNL     1       4.936  60.797  83.414  0.00  0.00    +0.000 OA
ATOM     12  N4  UNL     1       4.165  59.037  82.181  0.00  0.00    +0.000 N 
ATOM     13  C7  UNL     1       4.833  58.058  83.048  0.00  0.00    +0.000 C 
ATOM     14  C8  UNL     1       3.703  62.745  81.911  0.00  0.00    +0.000 C 
ENDROOT
TORSDOF 0
ENDMDL
MODEL 6
REMARK VINA RESULT:      -4.0      1.962      4.096
REMARK  Name = .\Caffeine.pdb
REMARK  3 active torsions:
REMARK  status: ('A' for Active; 'I' for Inactive)
REMARK    1  A    between atoms: C1_1  and  N1_2
REMARK    2  A    between atoms: N3_9  and  C8_14
REMARK    3  A    between atoms: N4_12  and  C7_13
REMARK                            x       y       z     vdW  Elec       q    Type
REMARK                         _______ _______ _______ _____ _____    ______ ____
ROOT
ATOM      1  C1  UNL     1       5.158  60.010  83.024  0.00  0.00    +0.000 C 
ATOM      2  N1  UNL     1       4.370  59.144  82.151  0.00  0.00    +0.000 N 
ATOM      3  C2  UNL     1       4.462  57.796  82.041  0.00  0.00    +0.000 C 
ATOM      4  N2  UNL     1       3.604  57.276  81.126  0.00  0.00    +0.000 NA
ATOM      5  C3  UNL     1       2.961  58.367  80.662  0.00  0.00    +0.000 C 
ATOM      6  C4  UNL     1       3.417  59.487  81.270  0.00  0.00    +0.000 C 
ATOM      7  C5  UNL     1       2.909  60.732  80.924  0.00  0.00    +0.000 C 
ATOM      8  O1  UNL     1       3.349  61.778  81.475  0.00  0.00    +0.000 OA
ATOM      9  N3  UNL     1       1.926  60.790  79.961  0.00  0.00    +0.000 N 
ATOM     10  C6  UNL     1       1.497  59.633  79.333  0.00  0.00    +0.000 C 
ATOM     11  O2  UNL     1       0.644  59.702  78.403  0.00  0.00    +0.000 OA
ATOM     12  N4  UNL     1       1.997  58.401  79.703  0.00  0.00    +0.000 N 
ATOM     13  C7  UNL     1       1.566  57.171  79.027  0.00  0.00    +0.000 C 
ATOM     14  C8  UNL     1       1.390  62.095  79.540  0.00  0.00    +0.000 C 
ENDROOT
TORSDOF 0
ENDMDL
MODEL 7
REMARK VINA RESULT:      -4.0      2.424      4.148
REMARK  Name = .\Caffeine.pdb
REMARK  3 active torsions:
REMARK  status: ('A' for Active; 'I' for Inactive)
REMARK    1  A    between atoms: C1_1  and  N1_2
REMARK    2  A    between atoms: N3_9  and  C8_14
REMARK    3  A    between atoms: N4_12  and  C7_13
REMARK                            x       y       z     vdW  Elec       q    Type
REMARK                         _______ _______ _______ _____ _____    ______ ____
ROOT
ATOM      1  C1  UNL     1       1.436  62.101  79.563  0.00  0.00    +0.000 C 
ATOM      2  N1  UNL     1       1.598  60.652  79.514  0.00  0.00    +0.000 N 
ATOM      3  C2  UNL     1       0.953  59.786  78.694  0.00  0.00    +0.000 C 
ATOM      4  N2  UNL     1       1.306  58.491  78.901  0.00  0.00    +0.000 NA
ATOM      5  C3  UNL     1       2.212  58.582  79.896  0.00  0.00    +0.000 C 
ATOM      6  C4  UNL     1       2.388  59.870  80.269  0.00  0.00    +0.000 C 
ATOM      7  C5  UNL     1       3.262  60.193  81.299  0.00  0.00    +0.000 C 
ATOM      8  O1  UNL     1       3.410  61.392  81.661  0.00  0.00    +0.000 OA
ATOM      9  N3  UNL     1       3.947  59.170  81.916  0.00  0.00    +0.000 N 
ATOM     10  C6  UNL     1       3.727  57.856  81.536  0.00  0.00    +0.000 C 
ATOM     11  O2  UNL     1       4.309  56.919  82.153  0.00  0.00    +0.000 OA
ATOM     12  N4  UNL     1       2.872  57.555  80.496  0.00  0.00    +0.000 N 
ATOM     13  C7  UNL     1       2.614  56.164  80.102  0.00  0.00    +0.000 C 
ATOM     14  C8  UNL     1       4.852  59.467  83.038  0.00  0.00    +0.000 C 
ENDROOT
TORSDOF 0
ENDMDL
MODEL 8
REMARK VINA RESULT:      -3.9      2.125      3.586
REMARK  Name = .\Caffeine.pdb
REMARK  3 active torsions:
REMARK  status: ('A' for Active; 'I' for Inactive)
REMARK    1  A    between atoms: C1_1  and  N1_2
REMARK    2  A    between atoms: N3_9  and  C8_14
REMARK    3  A    between atoms: N4_12  and  C7_13
REMARK                            x       y       z     vdW  Elec       q    Type
REMARK                         _______ _______ _______ _____ _____    ______ ____
ROOT
ATOM      1  C1  UNL     1       2.454  56.330  79.799  0.00  0.00    +0.000 C 
ATOM      2  N1  UNL     1       2.102  57.733  79.607  0.00  0.00    +0.000 N 
ATOM      3  C2  UNL     1       1.225  58.239  78.706  0.00  0.00    +0.000 C 
ATOM      4  N2  UNL     1       1.126  59.593  78.759  0.00  0.00    +0.000 NA
ATOM      5  C3  UNL     1       1.987  59.919  79.745  0.00  0.00    +0.000 C 
ATOM      6  C4  UNL     1       2.576  58.812  80.253  0.00  0.00    +0.000 C 
ATOM      7  C5  UNL     1       3.520  58.918  81.266  0.00  0.00    +0.000 C 
ATOM      8  O1  UNL     1       4.085  57.888  81.726  0.00  0.00    +0.000 OA
ATOM      9  N3  UNL     1       3.827  60.174  81.740  0.00  0.00    +0.000 N 
ATOM     10  C6  UNL     1       3.233  61.294  81.183  0.00  0.00    +0.000 C 
ATOM     11  O2  UNL     1       3.571  62.446  81.578  0.00  0.00    +0.000 OA
ATOM     12  N4  UNL     1       2.281  61.169  80.192  0.00  0.00    +0.000 N 
ATOM     13  C7  UNL     1       1.663  62.351  79.579  0.00  0.00    +0.000 C 
ATOM     14  C8  UNL     1       4.851  60.331  82.786  0.00  0.00    +0.000 C 
ENDROOT
TORSDOF 0
ENDMDL
MODEL 9
REMARK VINA RESULT:      -3.9      2.526      3.862
REMARK  Name = .\Caffeine.pdb
REMARK  3 active torsions:
REMARK  status: ('A' for Active; 'I' for Inactive)
REMARK    1  A    between atoms: C1_1  and  N1_2
REMARK    2  A    between atoms: N3_9  and  C8_14
REMARK    3  A    between atoms: N4_12  and  C7_13
REMARK                            x       y       z     vdW  Elec       q    Type
REMARK                         _______ _______ _______ _____ _____    ______ ____
ROOT
ATOM      1  C1  UNL     1       1.003  58.472  78.226  0.00  0.00    +0.000 C 
ATOM      2  N1  UNL     1       1.560  59.421  79.185  0.00  0.00    +0.000 N 
ATOM      3  C2  UNL     1       1.308  60.752  79.256  0.00  0.00    +0.000 C 
ATOM      4  N2  UNL     1       1.995  61.372  80.249  0.00  0.00    +0.000 NA
ATOM      5  C3  UNL     1       2.695  60.363  80.807  0.00  0.00    +0.000 C 
ATOM      6  C4  UNL     1       2.441  59.195  80.173  0.00  0.00    +0.000 C 
ATOM      7  C5  UNL     1       3.077  58.026  80.568  0.00  0.00    +0.000 C 
ATOM      8  O1  UNL     1       2.857  56.941  79.964  0.00  0.00    +0.000 OA
ATOM      9  N3  UNL     1       3.957  58.090  81.626  0.00  0.00    +0.000 N 
ATOM     10  C6  UNL     1       4.223  59.303  82.239  0.00  0.00    +0.000 C 
ATOM     11  O2  UNL     1       5.083  59.363  83.164  0.00  0.00    +0.000 OA
ATOM     12  N4  UNL     1       3.566  60.451  81.848  0.00  0.00    +0.000 N 
ATOM     13  C7  UNL     1       3.858  61.746  82.476  0.00  0.00    +0.000 C 
ATOM     14  C8  UNL     1       4.681  56.879  82.050  0.00  0.00    +0.000 C 
ENDROOT
TORSDOF 0
ENDMDL
