MODEL 1
REMARK VINA RESULT:      -4.2      0.000      0.000
REMARK  Name = .\Caffeine.pdb
REMARK  3 active torsions:
REMARK  status: ('A' for Active; 'I' for Inactive)
REMARK    1  A    between atoms: C1_1  and  N1_2
REMARK    2  A    between atoms: N3_9  and  C8_14
REMARK    3  A    between atoms: N4_12  and  C7_13
REMARK                            x       y       z     vdW  Elec       q    Type
REMARK                         _______ _______ _______ _____ _____    ______ ____
ROOT
ATOM      1  C1  UNL     1      -3.993  72.773 110.277  0.00  0.00    +0.000 C 
ATOM      2  N1  UNL     1      -2.792  71.959 110.440  0.00  0.00    +0.000 N 
ATOM      3  C2  UNL     1      -1.505  72.369 110.319  0.00  0.00    +0.000 C 
ATOM      4  N2  UNL     1      -0.606  71.370 110.511  0.00  0.00    +0.000 NA
ATOM      5  C3  UNL     1      -1.392  70.303 110.763  0.00  0.00    +0.000 C 
ATOM      6  C4  UNL     1      -2.699  70.649 110.719  0.00  0.00    +0.000 C 
ATOM      7  C5  UNL     1      -3.687  69.695 110.925  0.00  0.00    +0.000 C 
ATOM      8  O1  UNL     1      -4.907  70.012 110.863  0.00  0.00    +0.000 OA
ATOM      9  N3  UNL     1      -3.298  68.400 111.187  0.00  0.00    +0.000 N 
ATOM     10  C6  UNL     1      -1.954  68.065 111.197  0.00  0.00    +0.000 C 
ATOM     11  O2  UNL     1      -1.608  66.862 111.371  0.00  0.00    +0.000 OA
ATOM     12  N4  UNL     1      -0.985  69.029 111.012  0.00  0.00    +0.000 N 
ATOM     13  C7  UNL     1       0.442  68.680 110.997  0.00  0.00    +0.000 C 
ATOM     14  C8  UNL     1      -4.316  67.353 111.373  0.00  0.00    +0.000 C 
ENDROOT
TORSDOF 0
ENDMDL
MODEL 2
REMARK VINA RESULT:      -4.2      2.412      3.691
REMARK  Name = .\Caffeine.pdb
REMARK  3 active torsions:
REMARK  status: ('A' for Active; 'I' for Inactive)
REMARK    1  A    between atoms: C1_1  and  N1_2
REMARK    2  A    between atoms: N3_9  and  C8_14
REMARK    3  A    between atoms: N4_12  and  C7_13
REMARK                            x       y       z     vdW  Elec       q    Type
REMARK                         _______ _______ _______ _____ _____    ______ ____
ROOT
ATOM      1  C1  UNL     1      -4.376  75.167 110.941  0.00  0.00    +0.000 C 
ATOM      2  N1  UNL     1      -4.056  73.808 110.514  0.00  0.00    +0.000 N 
ATOM      3  C2  UNL     1      -4.687  73.084 109.557  0.00  0.00    +0.000 C 
ATOM      4  N2  UNL     1      -4.167  71.840 109.400  0.00  0.00    +0.000 NA
ATOM      5  C3  UNL     1      -3.170  71.813 110.307  0.00  0.00    +0.000 C 
ATOM      6  C4  UNL     1      -3.101  72.986 110.979  0.00  0.00    +0.000 C 
ATOM      7  C5  UNL     1      -2.159  73.170 111.982  0.00  0.00    +0.000 C 
ATOM      8  O1  UNL     1      -2.108  74.255 112.622  0.00  0.00    +0.000 OA
ATOM      9  N3  UNL     1      -1.296  72.134 112.261  0.00  0.00    +0.000 N 
ATOM     10  C6  UNL     1      -1.406  70.932 111.581  0.00  0.00    +0.000 C 
ATOM     11  O2  UNL     1      -0.654  69.964 111.891  0.00  0.00    +0.000 OA
ATOM     12  N4  UNL     1      -2.334  70.774 110.573  0.00  0.00    +0.000 N 
ATOM     13  C7  UNL     1      -2.474  69.497 109.862  0.00  0.00    +0.000 C 
ATOM     14  C8  UNL     1      -0.308  72.275 113.345  0.00  0.00    +0.000 C 
ENDROOT
TORSDOF 0
ENDMDL
MODEL 3
REMARK VINA RESULT:      -4.2      2.231      3.019
REMARK  Name = .\Caffeine.pdb
REMARK  3 active torsions:
REMARK  status: ('A' for Active; 'I' for Inactive)
REMARK    1  A    between atoms: C1_1  and  N1_2
REMARK    2  A    between atoms: N3_9  and  C8_14
REMARK    3  A    between atoms: N4_12  and  C7_13
REMARK                            x       y       z     vdW  Elec       q    Type
REMARK                         _______ _______ _______ _____ _____    ______ ____
ROOT
ATOM      1  C1  UNL     1      -4.289  72.699 109.592  0.00  0.00    +0.000 C 
ATOM      2  N1  UNL     1      -3.349  72.867 110.696  0.00  0.00    +0.000 N 
ATOM      3  C2  UNL     1      -3.203  73.960 111.484  0.00  0.00    +0.000 C 
ATOM      4  N2  UNL     1      -2.227  73.818 112.417  0.00  0.00    +0.000 NA
ATOM      5  C3  UNL     1      -1.763  72.575 112.181  0.00  0.00    +0.000 C 
ATOM      6  C4  UNL     1      -2.427  72.002 111.150  0.00  0.00    +0.000 C 
ATOM      7  C5  UNL     1      -2.093  70.726 110.718  0.00  0.00    +0.000 C 
ATOM      8  O1  UNL     1      -2.698  70.200 109.744  0.00  0.00    +0.000 OA
ATOM      9  N3  UNL     1      -1.080  70.061 111.374  0.00  0.00    +0.000 N 
ATOM     10  C6  UNL     1      -0.394  70.680 112.406  0.00  0.00    +0.000 C 
ATOM     11  O2  UNL     1       0.578  70.089 112.957  0.00  0.00    +0.000 OA
ATOM     12  N4  UNL     1      -0.754  71.941 112.837  0.00  0.00    +0.000 N 
ATOM     13  C7  UNL     1      -0.018  72.614 113.914  0.00  0.00    +0.000 C 
ATOM     14  C8  UNL     1      -0.670  68.722 110.920  0.00  0.00    +0.000 C 
ENDROOT
TORSDOF 0
ENDMDL
MODEL 4
REMARK VINA RESULT:      -4.1      2.163      3.144
REMARK  Name = .\Caffeine.pdb
REMARK  3 active torsions:
REMARK  status: ('A' for Active; 'I' for Inactive)
REMARK    1  A    between atoms: C1_1  and  N1_2
REMARK    2  A    between atoms: N3_9  and  C8_14
REMARK    3  A    between atoms: N4_12  and  C7_13
REMARK                            x       y       z     vdW  Elec       q    Type
REMARK                         _______ _______ _______ _____ _____    ______ ____
ROOT
ATOM      1  C1  UNL     1      -2.646  73.984 112.218  0.00  0.00    +0.000 C 
ATOM      2  N1  UNL     1      -2.721  72.758 111.430  0.00  0.00    +0.000 N 
ATOM      3  C2  UNL     1      -3.655  72.442 110.500  0.00  0.00    +0.000 C 
ATOM      4  N2  UNL     1      -3.466  71.215 109.950  0.00  0.00    +0.000 NA
ATOM      5  C3  UNL     1      -2.360  70.770 110.579  0.00  0.00    +0.000 C 
ATOM      6  C4  UNL     1      -1.912  71.687 111.468  0.00  0.00    +0.000 C 
ATOM      7  C5  UNL     1      -0.794  71.424 112.249  0.00  0.00    +0.000 C 
ATOM      8  O1  UNL     1      -0.389  72.270 113.092  0.00  0.00    +0.000 OA
ATOM      9  N3  UNL     1      -0.153  70.217 112.082  0.00  0.00    +0.000 N 
ATOM     10  C6  UNL     1      -0.648  69.282 111.188  0.00  0.00    +0.000 C 
ATOM     11  O2  UNL     1      -0.094  68.151 111.091  0.00  0.00    +0.000 OA
ATOM     12  N4  UNL     1      -1.748  69.568 110.405  0.00  0.00    +0.000 N 
ATOM     13  C7  UNL     1      -2.294  68.575 109.471  0.00  0.00    +0.000 C 
ATOM     14  C8  UNL     1       1.012  69.885 112.919  0.00  0.00    +0.000 C 
ENDROOT
TORSDOF 0
ENDMDL
MODEL 5
REMARK VINA RESULT:      -4.0      1.687      3.043
REMARK  Name = .\Caffeine.pdb
REMARK  3 active torsions:
REMARK  status: ('A' for Active; 'I' for Inactive)
REMARK    1  A    between atoms: C1_1  and  N1_2
REMARK    2  A    between atoms: N3_9  and  C8_14
REMARK    3  A    between atoms: N4_12  and  C7_13
REMARK                            x       y       z     vdW  Elec       q    Type
REMARK                         _______ _______ _______ _____ _____    ______ ____
ROOT
ATOM      1  C1  UNL     1      -2.245  73.113 110.078  0.00  0.00    +0.000 C 
ATOM      2  N1  UNL     1      -2.773  71.781 110.357  0.00  0.00    +0.000 N 
ATOM      3  C2  UNL     1      -4.063  71.452 110.615  0.00  0.00    +0.000 C 
ATOM      4  N2  UNL     1      -4.238  70.127 110.855  0.00  0.00    +0.000 NA
ATOM      5  C3  UNL     1      -2.989  69.632 110.733  0.00  0.00    +0.000 C 
ATOM      6  C4  UNL     1      -2.109  70.616 110.439  0.00  0.00    +0.000 C 
ATOM      7  C5  UNL     1      -0.758  70.333 110.294  0.00  0.00    +0.000 C 
ATOM      8  O1  UNL     1       0.067  71.254 110.040  0.00  0.00    +0.000 OA
ATOM      9  N3  UNL     1      -0.347  69.027 110.445  0.00  0.00    +0.000 N 
ATOM     10  C6  UNL     1      -1.262  68.042 110.777  0.00  0.00    +0.000 C 
ATOM     11  O2  UNL     1      -0.866  66.860 110.980  0.00  0.00    +0.000 OA
ATOM     12  N4  UNL     1      -2.605  68.338 110.896  0.00  0.00    +0.000 N 
ATOM     13  C7  UNL     1      -3.580  67.305 111.270  0.00  0.00    +0.000 C 
ATOM     14  C8  UNL     1       1.083  68.693 110.338  0.00  0.00    +0.000 C 
ENDROOT
TORSDOF 0
ENDMDL
MODEL 6
REMARK VINA RESULT:      -4.0      1.542      3.656
REMARK  Name = .\Caffeine.pdb
REMARK  3 active torsions:
REMARK  status: ('A' for Active; 'I' for Inactive)
REMARK    1  A    between atoms: C1_1  and  N1_2
REMARK    2  A    between atoms: N3_9  and  C8_14
REMARK    3  A    between atoms: N4_12  and  C7_13
REMARK                            x       y       z     vdW  Elec       q    Type
REMARK                         _______ _______ _______ _____ _____    ______ ____
ROOT
ATOM      1  C1  UNL     1      -4.484  66.932 111.427  0.00  0.00    +0.000 C 
ATOM      2  N1  UNL     1      -3.177  67.510 111.132  0.00  0.00    +0.000 N 
ATOM      3  C2  UNL     1      -1.988  66.860 111.090  0.00  0.00    +0.000 C 
ATOM      4  N2  UNL     1      -0.942  67.678 110.805  0.00  0.00    +0.000 NA
ATOM      5  C3  UNL     1      -1.532  68.882 110.666  0.00  0.00    +0.000 C 
ATOM      6  C4  UNL     1      -2.867  68.789 110.863  0.00  0.00    +0.000 C 
ATOM      7  C5  UNL     1      -3.671  69.919 110.792  0.00  0.00    +0.000 C 
ATOM      8  O1  UNL     1      -4.913  69.835 110.996  0.00  0.00    +0.000 OA
ATOM      9  N3  UNL     1      -3.073  71.126 110.504  0.00  0.00    +0.000 N 
ATOM     10  C6  UNL     1      -1.700  71.201 110.337  0.00  0.00    +0.000 C 
ATOM     11  O2  UNL     1      -1.152  72.323 110.141  0.00  0.00    +0.000 OA
ATOM     12  N4  UNL     1      -0.919  70.065 110.389  0.00  0.00    +0.000 N 
ATOM     13  C7  UNL     1       0.540  70.137 110.236  0.00  0.00    +0.000 C 
ATOM     14  C8  UNL     1      -3.885  72.353 110.459  0.00  0.00    +0.000 C 
ENDROOT
TORSDOF 0
ENDMDL
MODEL 7
REMARK VINA RESULT:      -4.0      2.610      3.617
REMARK  Name = .\Caffeine.pdb
REMARK  3 active torsions:
REMARK  status: ('A' for Active; 'I' for Inactive)
REMARK    1  A    between atoms: C1_1  and  N1_2
REMARK    2  A    between atoms: N3_9  and  C8_14
REMARK    3  A    between atoms: N4_12  and  C7_13
REMARK                            x       y       z     vdW  Elec       q    Type
REMARK                         _______ _______ _______ _____ _____    ______ ____
ROOT
ATOM      1  C1  UNL     1      -4.000  74.341 111.088  0.00  0.00    +0.000 C 
ATOM      2  N1  UNL     1      -3.414  73.022 110.870  0.00  0.00    +0.000 N 
ATOM      3  C2  UNL     1      -3.815  72.090 109.970  0.00  0.00    +0.000 C 
ATOM      4  N2  UNL     1      -3.079  70.950 110.020  0.00  0.00    +0.000 NA
ATOM      5  C3  UNL     1      -2.187  71.209 110.998  0.00  0.00    +0.000 C 
ATOM      6  C4  UNL     1      -2.385  72.445 111.512  0.00  0.00    +0.000 C 
ATOM      7  C5  UNL     1      -1.592  72.911 112.553  0.00  0.00    +0.000 C 
ATOM      8  O1  UNL     1      -1.790  74.055 113.046  0.00  0.00    +0.000 OA
ATOM      9  N3  UNL     1      -0.599  72.087 113.032  0.00  0.00    +0.000 N 
ATOM     10  C6  UNL     1      -0.435  70.814 112.511  0.00  0.00    +0.000 C 
ATOM     11  O2  UNL     1       0.434  70.041 113.003  0.00  0.00    +0.000 OA
ATOM     12  N4  UNL     1      -1.218  70.376 111.462  0.00  0.00    +0.000 N 
ATOM     13  C7  UNL     1      -1.069  69.020 110.918  0.00  0.00    +0.000 C 
ATOM     14  C8  UNL     1       0.238  72.529 114.161  0.00  0.00    +0.000 C 
ENDROOT
TORSDOF 0
ENDMDL
MODEL 8
REMARK VINA RESULT:      -3.9      2.347      4.090
REMARK  Name = .\Caffeine.pdb
REMARK  3 active torsions:
REMARK  status: ('A' for Active; 'I' for Inactive)
REMARK    1  A    between atoms: C1_1  and  N1_2
REMARK    2  A    between atoms: N3_9  and  C8_14
REMARK    3  A    between atoms: N4_12  and  C7_13
REMARK                            x       y       z     vdW  Elec       q    Type
REMARK                         _______ _______ _______ _____ _____    ______ ____
ROOT
ATOM      1  C1  UNL     1      -2.603  68.754 109.548  0.00  0.00    +0.000 C 
ATOM      2  N1  UNL     1      -1.799  69.416 110.571  0.00  0.00    +0.000 N 
ATOM      3  C2  UNL     1      -0.757  68.886 111.259  0.00  0.00    +0.000 C 
ATOM      4  N2  UNL     1      -0.221  69.748 112.161  0.00  0.00    +0.000 NA
ATOM      5  C3  UNL     1      -0.977  70.854 112.007  0.00  0.00    +0.000 C 
ATOM      6  C4  UNL     1      -1.924  70.660 111.060  0.00  0.00    +0.000 C 
ATOM      7  C5  UNL     1      -2.833  71.665 110.757  0.00  0.00    +0.000 C 
ATOM      8  O1  UNL     1      -3.729  71.477 109.889  0.00  0.00    +0.000 OA
ATOM      9  N3  UNL     1      -2.733  72.859 111.435  0.00  0.00    +0.000 N 
ATOM     10  C6  UNL     1      -1.775  73.023 112.422  0.00  0.00    +0.000 C 
ATOM     11  O2  UNL     1      -1.734  74.097 113.086  0.00  0.00    +0.000 OA
ATOM     12  N4  UNL     1      -0.866  72.022 112.696  0.00  0.00    +0.000 N 
ATOM     13  C7  UNL     1       0.139  72.176 113.755  0.00  0.00    +0.000 C 
ATOM     14  C8  UNL     1      -3.703  73.935 111.170  0.00  0.00    +0.000 C 
ENDROOT
TORSDOF 0
ENDMDL
MODEL 9
REMARK VINA RESULT:      -3.8      2.529      3.470
REMARK  Name = .\Caffeine.pdb
REMARK  3 active torsions:
REMARK  status: ('A' for Active; 'I' for Inactive)
REMARK    1  A    between atoms: C1_1  and  N1_2
REMARK    2  A    between atoms: N3_9  and  C8_14
REMARK    3  A    between atoms: N4_12  and  C7_13
REMARK                            x       y       z     vdW  Elec       q    Type
REMARK                         _______ _______ _______ _____ _____    ______ ____
ROOT
ATOM      1  C1  UNL     1      -0.179  73.284 114.218  0.00  0.00    +0.000 C 
ATOM      2  N1  UNL     1      -0.058  72.009 113.516  0.00  0.00    +0.000 N 
ATOM      3  C2  UNL     1       0.844  71.027 113.760  0.00  0.00    +0.000 C 
ATOM      4  N2  UNL     1       0.715  69.965 112.922  0.00  0.00    +0.000 NA
ATOM      5  C3  UNL     1      -0.320  70.326 112.136  0.00  0.00    +0.000 C 
ATOM      6  C4  UNL     1      -0.784  71.548 112.485  0.00  0.00    +0.000 C 
ATOM      7  C5  UNL     1      -1.835  72.128 111.787  0.00  0.00    +0.000 C 
ATOM      8  O1  UNL     1      -2.254  73.277 112.097  0.00  0.00    +0.000 OA
ATOM      9  N3  UNL     1      -2.394  71.421 110.746  0.00  0.00    +0.000 N 
ATOM     10  C6  UNL     1      -1.881  70.184 110.389  0.00  0.00    +0.000 C 
ATOM     11  O2  UNL     1      -2.356  69.572 109.390  0.00  0.00    +0.000 OA
ATOM     12  N4  UNL     1      -0.851  69.613 111.107  0.00  0.00    +0.000 N 
ATOM     13  C7  UNL     1      -0.285  68.314 110.722  0.00  0.00    +0.000 C 
ATOM     14  C8  UNL     1      -3.484  72.018 109.957  0.00  0.00    +0.000 C 
ENDROOT
TORSDOF 0
ENDMDL
