MODEL 1
REMARK VINA RESULT:      -4.4      0.000      0.000
REMARK  Name = .\Caffeine.pdb
REMARK  3 active torsions:
REMARK  status: ('A' for Active; 'I' for Inactive)
REMARK    1  A    between atoms: C1_1  and  N1_2
REMARK    2  A    between atoms: N3_9  and  C8_14
REMARK    3  A    between atoms: N4_12  and  C7_13
REMARK                            x       y       z     vdW  Elec       q    Type
REMARK                         _______ _______ _______ _____ _____    ______ ____
ROOT
ATOM      1  C1  UNL     1      -9.683  41.571  12.385  0.00  0.00    +0.000 C 
ATOM      2  N1  UNL     1     -10.720  41.943  13.343  0.00  0.00    +0.000 N 
ATOM      3  C2  UNL     1     -11.790  42.744  13.117  0.00  0.00    +0.000 C 
ATOM      4  N2  UNL     1     -12.568  42.917  14.217  0.00  0.00    +0.000 NA
ATOM      5  C3  UNL     1     -11.936  42.180  15.152  0.00  0.00    +0.000 C 
ATOM      6  C4  UNL     1     -10.828  41.598  14.636  0.00  0.00    +0.000 C 
ATOM      7  C5  UNL     1     -10.009  40.812  15.435  0.00  0.00    +0.000 C 
ATOM      8  O1  UNL     1      -8.965  40.286  14.960  0.00  0.00    +0.000 OA
ATOM      9  N3  UNL     1     -10.363  40.633  16.754  0.00  0.00    +0.000 N 
ATOM     10  C6  UNL     1     -11.485  41.264  17.266  0.00  0.00    +0.000 C 
ATOM     11  O2  UNL     1     -11.764  41.150  18.493  0.00  0.00    +0.000 OA
ATOM     12  N4  UNL     1     -12.299  42.025  16.453  0.00  0.00    +0.000 N 
ATOM     13  C7  UNL     1     -13.478  42.717  16.992  0.00  0.00    +0.000 C 
ATOM     14  C8  UNL     1      -9.499  39.838  17.643  0.00  0.00    +0.000 C 
ENDROOT
TORSDOF 0
ENDMDL
MODEL 2
REMARK VINA RESULT:      -4.3      2.289      2.892
REMARK  Name = .\Caffeine.pdb
REMARK  3 active torsions:
REMARK  status: ('A' for Active; 'I' for Inactive)
REMARK    1  A    between atoms: C1_1  and  N1_2
REMARK    2  A    between atoms: N3_9  and  C8_14
REMARK    3  A    between atoms: N4_12  and  C7_13
REMARK                            x       y       z     vdW  Elec       q    Type
REMARK                         _______ _______ _______ _____ _____    ______ ____
ROOT
ATOM      1  C1  UNL     1      -9.187  43.147  16.850  0.00  0.00    +0.000 C 
ATOM      2  N1  UNL     1     -10.188  42.485  16.019  0.00  0.00    +0.000 N 
ATOM      3  C2  UNL     1     -11.047  43.074  15.150  0.00  0.00    +0.000 C 
ATOM      4  N2  UNL     1     -11.874  42.190  14.536  0.00  0.00    +0.000 NA
ATOM      5  C3  UNL     1     -11.493  41.007  15.060  0.00  0.00    +0.000 C 
ATOM      6  C4  UNL     1     -10.488  41.178  15.949  0.00  0.00    +0.000 C 
ATOM      7  C5  UNL     1      -9.957  40.090  16.630  0.00  0.00    +0.000 C 
ATOM      8  O1  UNL     1      -9.034  40.252  17.475  0.00  0.00    +0.000 OA
ATOM      9  N3  UNL     1     -10.473  38.841  16.364  0.00  0.00    +0.000 N 
ATOM     10  C6  UNL     1     -11.522  38.696  15.472  0.00  0.00    +0.000 C 
ATOM     11  O2  UNL     1     -12.034  37.556  15.285  0.00  0.00    +0.000 OA
ATOM     12  N4  UNL     1     -12.023  39.785  14.788  0.00  0.00    +0.000 N 
ATOM     13  C7  UNL     1     -13.151  39.644  13.858  0.00  0.00    +0.000 C 
ATOM     14  C8  UNL     1      -9.963  37.668  17.094  0.00  0.00    +0.000 C 
ENDROOT
TORSDOF 0
ENDMDL
MODEL 3
REMARK VINA RESULT:      -4.3      2.470      3.742
REMARK  Name = .\Caffeine.pdb
REMARK  3 active torsions:
REMARK  status: ('A' for Active; 'I' for Inactive)
REMARK    1  A    between atoms: C1_1  and  N1_2
REMARK    2  A    between atoms: N3_9  and  C8_14
REMARK    3  A    between atoms: N4_12  and  C7_13
REMARK                            x       y       z     vdW  Elec       q    Type
REMARK                         _______ _______ _______ _____ _____    ______ ____
ROOT
ATOM      1  C1  UNL     1     -11.346  43.958  15.233  0.00  0.00    +0.000 C 
ATOM      2  N1  UNL     1     -10.651  42.860  15.897  0.00  0.00    +0.000 N 
ATOM      3  C2  UNL     1      -9.587  42.954  16.732  0.00  0.00    +0.000 C 
ATOM      4  N2  UNL     1      -9.151  41.748  17.178  0.00  0.00    +0.000 NA
ATOM      5  C3  UNL     1      -9.997  40.883  16.583  0.00  0.00    +0.000 C 
ATOM      6  C4  UNL     1     -10.894  41.541  15.814  0.00  0.00    +0.000 C 
ATOM      7  C5  UNL     1     -11.848  40.841  15.087  0.00  0.00    +0.000 C 
ATOM      8  O1  UNL     1     -12.671  41.454  14.353  0.00  0.00    +0.000 OA
ATOM      9  N3  UNL     1     -11.860  39.467  15.183  0.00  0.00    +0.000 N 
ATOM     10  C6  UNL     1     -10.912  38.814  15.953  0.00  0.00    +0.000 C 
ATOM     11  O2  UNL     1     -10.888  37.551  15.981  0.00  0.00    +0.000 OA
ATOM     12  N4  UNL     1      -9.985  39.527  16.686  0.00  0.00    +0.000 N 
ATOM     13  C7  UNL     1      -8.961  38.843  17.487  0.00  0.00    +0.000 C 
ATOM     14  C8  UNL     1     -12.830  38.687  14.397  0.00  0.00    +0.000 C 
ENDROOT
TORSDOF 0
ENDMDL
MODEL 4
REMARK VINA RESULT:      -4.2      1.505      2.987
REMARK  Name = .\Caffeine.pdb
REMARK  3 active torsions:
REMARK  status: ('A' for Active; 'I' for Inactive)
REMARK    1  A    between atoms: C1_1  and  N1_2
REMARK    2  A    between atoms: N3_9  and  C8_14
REMARK    3  A    between atoms: N4_12  and  C7_13
REMARK                            x       y       z     vdW  Elec       q    Type
REMARK                         _______ _______ _______ _____ _____    ______ ____
ROOT
ATOM      1  C1  UNL     1     -10.833  42.443  12.246  0.00  0.00    +0.000 C 
ATOM      2  N1  UNL     1     -10.315  41.815  13.457  0.00  0.00    +0.000 N 
ATOM      3  C2  UNL     1      -9.139  41.153  13.594  0.00  0.00    +0.000 C 
ATOM      4  N2  UNL     1      -8.945  40.662  14.845  0.00  0.00    +0.000 NA
ATOM      5  C3  UNL     1     -10.061  41.050  15.496  0.00  0.00    +0.000 C 
ATOM      6  C4  UNL     1     -10.884  41.737  14.671  0.00  0.00    +0.000 C 
ATOM      7  C5  UNL     1     -12.106  42.210  15.129  0.00  0.00    +0.000 C 
ATOM      8  O1  UNL     1     -12.884  42.832  14.354  0.00  0.00    +0.000 OA
ATOM      9  N3  UNL     1     -12.446  41.972  16.442  0.00  0.00    +0.000 N 
ATOM     10  C6  UNL     1     -11.599  41.240  17.259  0.00  0.00    +0.000 C 
ATOM     11  O2  UNL     1     -11.949  40.969  18.443  0.00  0.00    +0.000 OA
ATOM     12  N4  UNL     1     -10.379  40.796  16.794  0.00  0.00    +0.000 N 
ATOM     13  C7  UNL     1      -9.485  40.000  17.645  0.00  0.00    +0.000 C 
ATOM     14  C8  UNL     1     -13.750  42.424  16.955  0.00  0.00    +0.000 C 
ENDROOT
TORSDOF 0
ENDMDL
MODEL 5
REMARK VINA RESULT:      -4.2      2.300      2.730
REMARK  Name = .\Caffeine.pdb
REMARK  3 active torsions:
REMARK  status: ('A' for Active; 'I' for Inactive)
REMARK    1  A    between atoms: C1_1  and  N1_2
REMARK    2  A    between atoms: N3_9  and  C8_14
REMARK    3  A    between atoms: N4_12  and  C7_13
REMARK                            x       y       z     vdW  Elec       q    Type
REMARK                         _______ _______ _______ _____ _____    ______ ____
ROOT
ATOM      1  C1  UNL     1     -13.295  38.970  13.161  0.00  0.00    +0.000 C 
ATOM      2  N1  UNL     1     -12.462  39.977  13.812  0.00  0.00    +0.000 N 
ATOM      3  C2  UNL     1     -12.345  41.284  13.471  0.00  0.00    +0.000 C 
ATOM      4  N2  UNL     1     -11.473  41.964  14.259  0.00  0.00    +0.000 NA
ATOM      5  C3  UNL     1     -11.046  41.020  15.121  0.00  0.00    +0.000 C 
ATOM      6  C4  UNL     1     -11.631  39.829  14.857  0.00  0.00    +0.000 C 
ATOM      7  C5  UNL     1     -11.314  38.706  15.610  0.00  0.00    +0.000 C 
ATOM      8  O1  UNL     1     -11.844  37.590  15.350  0.00  0.00    +0.000 OA
ATOM      9  N3  UNL     1     -10.404  38.844  16.633  0.00  0.00    +0.000 N 
ATOM     10  C6  UNL     1      -9.796  40.066  16.865  0.00  0.00    +0.000 C 
ATOM     11  O2  UNL     1      -8.911  40.168  17.762  0.00  0.00    +0.000 OA
ATOM     12  N4  UNL     1     -10.138  41.177  16.121  0.00  0.00    +0.000 N 
ATOM     13  C7  UNL     1      -9.482  42.472  16.344  0.00  0.00    +0.000 C 
ATOM     14  C8  UNL     1     -10.013  37.668  17.429  0.00  0.00    +0.000 C 
ENDROOT
TORSDOF 0
ENDMDL
MODEL 6
REMARK VINA RESULT:      -4.1      1.658      1.697
REMARK  Name = .\Caffeine.pdb
REMARK  3 active torsions:
REMARK  status: ('A' for Active; 'I' for Inactive)
REMARK    1  A    between atoms: C1_1  and  N1_2
REMARK    2  A    between atoms: N3_9  and  C8_14
REMARK    3  A    between atoms: N4_12  and  C7_13
REMARK                            x       y       z     vdW  Elec       q    Type
REMARK                         _______ _______ _______ _____ _____    ______ ____
ROOT
ATOM      1  C1  UNL     1      -8.960  41.310  12.046  0.00  0.00    +0.000 C 
ATOM      2  N1  UNL     1     -10.206  41.333  12.805  0.00  0.00    +0.000 N 
ATOM      3  C2  UNL     1     -11.440  40.993  12.359  0.00  0.00    +0.000 C 
ATOM      4  N2  UNL     1     -12.407  41.138  13.302  0.00  0.00    +0.000 NA
ATOM      5  C3  UNL     1     -11.719  41.587  14.372  0.00  0.00    +0.000 C 
ATOM      6  C4  UNL     1     -10.404  41.709  14.080  0.00  0.00    +0.000 C 
ATOM      7  C5  UNL     1      -9.511  42.181  15.033  0.00  0.00    +0.000 C 
ATOM      8  O1  UNL     1      -8.288  42.314  14.755  0.00  0.00    +0.000 OA
ATOM      9  N3  UNL     1     -10.001  42.507  16.278  0.00  0.00    +0.000 N 
ATOM     10  C6  UNL     1     -11.357  42.403  16.543  0.00  0.00    +0.000 C 
ATOM     11  O2  UNL     1     -11.807  42.768  17.666  0.00  0.00    +0.000 OA
ATOM     12  N4  UNL     1     -12.226  41.911  15.591  0.00  0.00    +0.000 N 
ATOM     13  C7  UNL     1     -13.668  41.819  15.855  0.00  0.00    +0.000 C 
ATOM     14  C8  UNL     1      -9.093  43.048  17.303  0.00  0.00    +0.000 C 
ENDROOT
TORSDOF 0
ENDMDL
MODEL 7
REMARK VINA RESULT:      -4.1      2.625      3.696
REMARK  Name = .\Caffeine.pdb
REMARK  3 active torsions:
REMARK  status: ('A' for Active; 'I' for Inactive)
REMARK    1  A    between atoms: C1_1  and  N1_2
REMARK    2  A    between atoms: N3_9  and  C8_14
REMARK    3  A    between atoms: N4_12  and  C7_13
REMARK                            x       y       z     vdW  Elec       q    Type
REMARK                         _______ _______ _______ _____ _____    ______ ____
ROOT
ATOM      1  C1  UNL     1     -13.439  39.745  12.973  0.00  0.00    +0.000 C 
ATOM      2  N1  UNL     1     -12.695  39.109  14.056  0.00  0.00    +0.000 N 
ATOM      3  C2  UNL     1     -12.847  37.843  14.517  0.00  0.00    +0.000 C 
ATOM      4  N2  UNL     1     -12.017  37.550  15.551  0.00  0.00    +0.000 NA
ATOM      5  C3  UNL     1     -11.327  38.696  15.719  0.00  0.00    +0.000 C 
ATOM      6  C4  UNL     1     -11.730  39.633  14.830  0.00  0.00    +0.000 C 
ATOM      7  C5  UNL     1     -11.169  40.903  14.841  0.00  0.00    +0.000 C 
ATOM      8  O1  UNL     1     -11.559  41.783  14.026  0.00  0.00    +0.000 OA
ATOM      9  N3  UNL     1     -10.188  41.173  15.769  0.00  0.00    +0.000 N 
ATOM     10  C6  UNL     1      -9.813  40.206  16.689  0.00  0.00    +0.000 C 
ATOM     11  O2  UNL     1      -8.961  40.484  17.579  0.00  0.00    +0.000 OA
ATOM     12  N4  UNL     1     -10.367  38.943  16.649  0.00  0.00    +0.000 N 
ATOM     13  C7  UNL     1      -9.993  37.920  17.634  0.00  0.00    +0.000 C 
ATOM     14  C8  UNL     1      -9.595  42.519  15.838  0.00  0.00    +0.000 C 
ENDROOT
TORSDOF 0
ENDMDL
MODEL 8
REMARK VINA RESULT:      -4.0      2.282      3.126
REMARK  Name = .\Caffeine.pdb
REMARK  3 active torsions:
REMARK  status: ('A' for Active; 'I' for Inactive)
REMARK    1  A    between atoms: C1_1  and  N1_2
REMARK    2  A    between atoms: N3_9  and  C8_14
REMARK    3  A    between atoms: N4_12  and  C7_13
REMARK                            x       y       z     vdW  Elec       q    Type
REMARK                         _______ _______ _______ _____ _____    ______ ____
ROOT
ATOM      1  C1  UNL     1     -10.348  41.685  12.051  0.00  0.00    +0.000 C 
ATOM      2  N1  UNL     1     -10.095  41.369  13.454  0.00  0.00    +0.000 N 
ATOM      3  C2  UNL     1      -9.013  41.727  14.188  0.00  0.00    +0.000 C 
ATOM      4  N2  UNL     1      -9.058  41.265  15.464  0.00  0.00    +0.000 NA
ATOM      5  C3  UNL     1     -10.229  40.598  15.502  0.00  0.00    +0.000 C 
ATOM      6  C4  UNL     1     -10.852  40.654  14.302  0.00  0.00    +0.000 C 
ATOM      7  C5  UNL     1     -12.067  40.009  14.107  0.00  0.00    +0.000 C 
ATOM      8  O1  UNL     1     -12.637  40.044  12.983  0.00  0.00    +0.000 OA
ATOM      9  N3  UNL     1     -12.619  39.328  15.169  0.00  0.00    +0.000 N 
ATOM     10  C6  UNL     1     -11.948  39.260  16.379  0.00  0.00    +0.000 C 
ATOM     11  O2  UNL     1     -12.429  38.576  17.326  0.00  0.00    +0.000 OA
ATOM     12  N4  UNL     1     -10.752  39.924  16.561  0.00  0.00    +0.000 N 
ATOM     13  C7  UNL     1     -10.022  39.838  17.832  0.00  0.00    +0.000 C 
ATOM     14  C8  UNL     1     -13.886  38.600  14.991  0.00  0.00    +0.000 C 
ENDROOT
TORSDOF 0
ENDMDL
MODEL 9
REMARK VINA RESULT:      -4.0      2.419      2.819
REMARK  Name = .\Caffeine.pdb
REMARK  3 active torsions:
REMARK  status: ('A' for Active; 'I' for Inactive)
REMARK    1  A    between atoms: C1_1  and  N1_2
REMARK    2  A    between atoms: N3_9  and  C8_14
REMARK    3  A    between atoms: N4_12  and  C7_13
REMARK                            x       y       z     vdW  Elec       q    Type
REMARK                         _______ _______ _______ _____ _____    ______ ____
ROOT
ATOM      1  C1  UNL     1     -11.757  39.376  15.192  0.00  0.00    +0.000 C 
ATOM      2  N1  UNL     1     -12.233  40.741  15.398  0.00  0.00    +0.000 N 
ATOM      3  C2  UNL     1     -13.485  41.211  15.176  0.00  0.00    +0.000 C 
ATOM      4  N2  UNL     1     -13.613  42.535  15.445  0.00  0.00    +0.000 NA
ATOM      5  C3  UNL     1     -12.375  42.881  15.853  0.00  0.00    +0.000 C 
ATOM      6  C4  UNL     1     -11.545  41.813  15.824  0.00  0.00    +0.000 C 
ATOM      7  C5  UNL     1     -10.210  41.948  16.182  0.00  0.00    +0.000 C 
ATOM      8  O1  UNL     1      -9.431  40.957  16.135  0.00  0.00    +0.000 OA
ATOM      9  N3  UNL     1      -9.764  43.190  16.576  0.00  0.00    +0.000 N 
ATOM     10  C6  UNL     1     -10.626  44.274  16.569  0.00  0.00    +0.000 C 
ATOM     11  O2  UNL     1     -10.192  45.423  16.867  0.00  0.00    +0.000 OA
ATOM     12  N4  UNL     1     -11.955  44.118  16.231  0.00  0.00    +0.000 N 
ATOM     13  C7  UNL     1     -12.871  45.265  16.198  0.00  0.00    +0.000 C 
ATOM     14  C8  UNL     1      -8.347  43.382  16.926  0.00  0.00    +0.000 C 
ENDROOT
TORSDOF 0
ENDMDL
