MODEL 1
REMARK VINA RESULT:      -1.2      0.000      0.000
REMARK  Name = .\Caffeine.pdb
REMARK  3 active torsions:
REMARK  status: ('A' for Active; 'I' for Inactive)
REMARK    1  A    between atoms: C1_1  and  N1_2
REMARK    2  A    between atoms: N3_9  and  C8_14
REMARK    3  A    between atoms: N4_12  and  C7_13
REMARK                            x       y       z     vdW  Elec       q    Type
REMARK                         _______ _______ _______ _____ _____    ______ ____
ROOT
ATOM      1  C1  UNL     1      -5.670 101.279  80.172  0.00  0.00    +0.000 C 
ATOM      2  N1  UNL     1      -4.220 101.142  80.082  0.00  0.00    +0.000 N 
ATOM      3  C2  UNL     1      -3.369 101.925  79.374  0.00  0.00    +0.000 C 
ATOM      4  N2  UNL     1      -2.073 101.531  79.475  0.00  0.00    +0.000 NA
ATOM      5  C3  UNL     1      -2.147 100.458  80.288  0.00  0.00    +0.000 C 
ATOM      6  C4  UNL     1      -3.428 100.219  80.651  0.00  0.00    +0.000 C 
ATOM      7  C5  UNL     1      -3.739  99.141  81.470  0.00  0.00    +0.000 C 
ATOM      8  O1  UNL     1      -4.935  98.905  81.792  0.00  0.00    +0.000 OA
ATOM      9  N3  UNL     1      -2.709  98.337  81.906  0.00  0.00    +0.000 N 
ATOM     10  C6  UNL     1      -1.409  98.585  81.496  0.00  0.00    +0.000 C 
ATOM     11  O2  UNL     1      -0.481  97.803  81.846  0.00  0.00    +0.000 OA
ATOM     12  N4  UNL     1      -1.116  99.673  80.700  0.00  0.00    +0.000 N 
ATOM     13  C7  UNL     1       0.255  99.930  80.241  0.00  0.00    +0.000 C 
ATOM     14  C8  UNL     1      -3.002  97.162  82.743  0.00  0.00    +0.000 C 
ENDROOT
TORSDOF 0
ENDMDL
MODEL 2
REMARK VINA RESULT:      -0.9      2.251      2.993
REMARK  Name = .\Caffeine.pdb
REMARK  3 active torsions:
REMARK  status: ('A' for Active; 'I' for Inactive)
REMARK    1  A    between atoms: C1_1  and  N1_2
REMARK    2  A    between atoms: N3_9  and  C8_14
REMARK    3  A    between atoms: N4_12  and  C7_13
REMARK                            x       y       z     vdW  Elec       q    Type
REMARK                         _______ _______ _______ _____ _____    ______ ____
ROOT
ATOM      1  C1  UNL     1      -0.932 101.925  81.421  0.00  0.00    +0.000 C 
ATOM      2  N1  UNL     1      -0.752 100.593  80.852  0.00  0.00    +0.000 N 
ATOM      3  C2  UNL     1       0.258 100.179  80.047  0.00  0.00    +0.000 C 
ATOM      4  N2  UNL     1       0.137  98.882  79.664  0.00  0.00    +0.000 NA
ATOM      5  C3  UNL     1      -1.002  98.494  80.271  0.00  0.00    +0.000 C 
ATOM      6  C4  UNL     1      -1.540  99.513  80.980  0.00  0.00    +0.000 C 
ATOM      7  C5  UNL     1      -2.734  99.341  81.667  0.00  0.00    +0.000 C 
ATOM      8  O1  UNL     1      -3.247 100.297  82.311  0.00  0.00    +0.000 OA
ATOM      9  N3  UNL     1      -3.343  98.107  81.614  0.00  0.00    +0.000 N 
ATOM     10  C6  UNL     1      -2.789  97.088  80.857  0.00  0.00    +0.000 C 
ATOM     11  O2  UNL     1      -3.390  95.980  80.760  0.00  0.00    +0.000 OA
ATOM     12  N4  UNL     1      -1.591  97.270  80.198  0.00  0.00    +0.000 N 
ATOM     13  C7  UNL     1      -1.007  96.203  79.374  0.00  0.00    +0.000 C 
ATOM     14  C8  UNL     1      -4.630  97.896  82.297  0.00  0.00    +0.000 C 
ENDROOT
TORSDOF 0
ENDMDL
MODEL 3
REMARK VINA RESULT:      -0.4      1.472      3.648
REMARK  Name = .\Caffeine.pdb
REMARK  3 active torsions:
REMARK  status: ('A' for Active; 'I' for Inactive)
REMARK    1  A    between atoms: C1_1  and  N1_2
REMARK    2  A    between atoms: N3_9  and  C8_14
REMARK    3  A    between atoms: N4_12  and  C7_13
REMARK                            x       y       z     vdW  Elec       q    Type
REMARK                         _______ _______ _______ _____ _____    ______ ____
ROOT
ATOM      1  C1  UNL     1       0.217  97.903  82.680  0.00  0.00    +0.000 C 
ATOM      2  N1  UNL     1      -0.391  98.940  81.853  0.00  0.00    +0.000 N 
ATOM      3  C2  UNL     1       0.251  99.918  81.167  0.00  0.00    +0.000 C 
ATOM      4  N2  UNL     1      -0.595 100.747  80.503  0.00  0.00    +0.000 NA
ATOM      5  C3  UNL     1      -1.809 100.241  80.802  0.00  0.00    +0.000 C 
ATOM      6  C4  UNL     1      -1.694  99.163  81.611  0.00  0.00    +0.000 C 
ATOM      7  C5  UNL     1      -2.825  98.499  82.066  0.00  0.00    +0.000 C 
ATOM      8  O1  UNL     1      -2.719  97.507  82.837  0.00  0.00    +0.000 OA
ATOM      9  N3  UNL     1      -4.058  98.960  81.659  0.00  0.00    +0.000 N 
ATOM     10  C6  UNL     1      -4.151 100.084  80.855  0.00  0.00    +0.000 C 
ATOM     11  O2  UNL     1      -5.287 100.540  80.543  0.00  0.00    +0.000 OA
ATOM     12  N4  UNL     1      -3.015 100.719  80.395  0.00  0.00    +0.000 N 
ATOM     13  C7  UNL     1      -3.104 101.925  79.562  0.00  0.00    +0.000 C 
ATOM     14  C8  UNL     1      -5.282  98.307  82.151  0.00  0.00    +0.000 C 
ENDROOT
TORSDOF 0
ENDMDL
MODEL 4
REMARK VINA RESULT:       0.6      2.275      3.474
REMARK  Name = .\Caffeine.pdb
REMARK  3 active torsions:
REMARK  status: ('A' for Active; 'I' for Inactive)
REMARK    1  A    between atoms: C1_1  and  N1_2
REMARK    2  A    between atoms: N3_9  and  C8_14
REMARK    3  A    between atoms: N4_12  and  C7_13
REMARK                            x       y       z     vdW  Elec       q    Type
REMARK                         _______ _______ _______ _____ _____    ______ ____
ROOT
ATOM      1  C1  UNL     1      -3.407 101.925  82.588  0.00  0.00    +0.000 C 
ATOM      2  N1  UNL     1      -3.547 100.504  82.284  0.00  0.00    +0.000 N 
ATOM      3  C2  UNL     1      -4.507  99.663  82.741  0.00  0.00    +0.000 C 
ATOM      4  N2  UNL     1      -4.357  98.390  82.292  0.00  0.00    +0.000 NA
ATOM      5  C3  UNL     1      -3.252  98.469  81.524  0.00  0.00    +0.000 C 
ATOM      6  C4  UNL     1      -2.761  99.730  81.518  0.00  0.00    +0.000 C 
ATOM      7  C5  UNL     1      -1.607 100.034  80.808  0.00  0.00    +0.000 C 
ATOM      8  O1  UNL     1      -1.137 101.204  80.819  0.00  0.00    +0.000 OA
ATOM      9  N3  UNL     1      -0.989  99.022  80.107  0.00  0.00    +0.000 N 
ATOM     10  C6  UNL     1      -1.493  97.733  80.153  0.00  0.00    +0.000 C 
ATOM     11  O2  UNL     1      -0.882  96.798  79.562  0.00  0.00    +0.000 OA
ATOM     12  N4  UNL     1      -2.653  97.453  80.846  0.00  0.00    +0.000 N 
ATOM     13  C7  UNL     1      -3.183  96.086  80.920  0.00  0.00    +0.000 C 
ATOM     14  C8  UNL     1       0.258  99.295  79.374  0.00  0.00    +0.000 C 
ENDROOT
TORSDOF 0
ENDMDL
MODEL 5
REMARK VINA RESULT:       0.8      1.696      4.329
REMARK  Name = .\Caffeine.pdb
REMARK  3 active torsions:
REMARK  status: ('A' for Active; 'I' for Inactive)
REMARK    1  A    between atoms: C1_1  and  N1_2
REMARK    2  A    between atoms: N3_9  and  C8_14
REMARK    3  A    between atoms: N4_12  and  C7_13
REMARK                            x       y       z     vdW  Elec       q    Type
REMARK                         _______ _______ _______ _____ _____    ______ ____
ROOT
ATOM      1  C1  UNL     1      -1.775  96.709  83.469  0.00  0.00    +0.000 C 
ATOM      2  N1  UNL     1      -2.656  97.631  82.757  0.00  0.00    +0.000 N 
ATOM      3  C2  UNL     1      -4.006  97.560  82.663  0.00  0.00    +0.000 C 
ATOM      4  N2  UNL     1      -4.542  98.557  81.913  0.00  0.00    +0.000 NA
ATOM      5  C3  UNL     1      -3.458  99.267  81.539  0.00  0.00    +0.000 C 
ATOM      6  C4  UNL     1      -2.327  98.716  82.038  0.00  0.00    +0.000 C 
ATOM      7  C5  UNL     1      -1.088  99.273  81.754  0.00  0.00    +0.000 C 
ATOM      8  O1  UNL     1      -0.032  98.747  82.202  0.00  0.00    +0.000 OA
ATOM      9  N3  UNL     1      -1.046 100.402  80.966  0.00  0.00    +0.000 N 
ATOM     10  C6  UNL     1      -2.214 100.930  80.442  0.00  0.00    +0.000 C 
ATOM     11  O2  UNL     1      -2.160 101.925  79.665  0.00  0.00    +0.000 OA
ATOM     12  N4  UNL     1      -3.440 100.376  80.752  0.00  0.00    +0.000 N 
ATOM     13  C7  UNL     1      -4.682 100.914  80.182  0.00  0.00    +0.000 C 
ATOM     14  C8  UNL     1       0.252 100.999  80.611  0.00  0.00    +0.000 C 
ENDROOT
TORSDOF 0
ENDMDL
MODEL 6
REMARK VINA RESULT:       1.1      1.963      3.490
REMARK  Name = .\Caffeine.pdb
REMARK  3 active torsions:
REMARK  status: ('A' for Active; 'I' for Inactive)
REMARK    1  A    between atoms: C1_1  and  N1_2
REMARK    2  A    between atoms: N3_9  and  C8_14
REMARK    3  A    between atoms: N4_12  and  C7_13
REMARK                            x       y       z     vdW  Elec       q    Type
REMARK                         _______ _______ _______ _____ _____    ______ ____
ROOT
ATOM      1  C1  UNL     1      -5.090  97.551  82.593  0.00  0.00    +0.000 C 
ATOM      2  N1  UNL     1      -3.886  97.392  81.784  0.00  0.00    +0.000 N 
ATOM      3  C2  UNL     1      -3.357  96.230  81.328  0.00  0.00    +0.000 C 
ATOM      4  N2  UNL     1      -2.215  96.407  80.615  0.00  0.00    +0.000 NA
ATOM      5  C3  UNL     1      -2.048  97.745  80.641  0.00  0.00    +0.000 C 
ATOM      6  C4  UNL     1      -3.042  98.339  81.341  0.00  0.00    +0.000 C 
ATOM      7  C5  UNL     1      -3.054  99.716  81.518  0.00  0.00    +0.000 C 
ATOM      8  O1  UNL     1      -3.969 100.268  82.188  0.00  0.00    +0.000 OA
ATOM      9  N3  UNL     1      -2.039 100.454  80.951  0.00  0.00    +0.000 N 
ATOM     10  C6  UNL     1      -1.016  99.820  80.264  0.00  0.00    +0.000 C 
ATOM     11  O2  UNL     1      -0.053 100.498  79.806  0.00  0.00    +0.000 OA
ATOM     12  N4  UNL     1      -1.031  98.453  80.080  0.00  0.00    +0.000 N 
ATOM     13  C7  UNL     1       0.060  97.769  79.374  0.00  0.00    +0.000 C 
ATOM     14  C8  UNL     1      -1.995 101.912  81.148  0.00  0.00    +0.000 C 
ENDROOT
TORSDOF 0
ENDMDL
MODEL 7
REMARK VINA RESULT:       1.1      1.804      4.811
REMARK  Name = .\Caffeine.pdb
REMARK  3 active torsions:
REMARK  status: ('A' for Active; 'I' for Inactive)
REMARK    1  A    between atoms: C1_1  and  N1_2
REMARK    2  A    between atoms: N3_9  and  C8_14
REMARK    3  A    between atoms: N4_12  and  C7_13
REMARK                            x       y       z     vdW  Elec       q    Type
REMARK                         _______ _______ _______ _____ _____    ______ ____
ROOT
ATOM      1  C1  UNL     1       0.257  98.394  82.904  0.00  0.00    +0.000 C 
ATOM      2  N1  UNL     1      -1.177  98.150  82.788  0.00  0.00    +0.000 N 
ATOM      3  C2  UNL     1      -1.863  97.078  83.256  0.00  0.00    +0.000 C 
ATOM      4  N2  UNL     1      -3.191  97.130  82.974  0.00  0.00    +0.000 NA
ATOM      5  C3  UNL     1      -3.311  98.294  82.305  0.00  0.00    +0.000 C 
ATOM      6  C4  UNL     1      -2.110  98.907  82.188  0.00  0.00    +0.000 C 
ATOM      7  C5  UNL     1      -1.998 100.113  81.508  0.00  0.00    +0.000 C 
ATOM      8  O1  UNL     1      -0.875 100.674  81.381  0.00  0.00    +0.000 OA
ATOM      9  N3  UNL     1      -3.139 100.667  80.973  0.00  0.00    +0.000 N 
ATOM     10  C6  UNL     1      -4.352 100.006  81.080  0.00  0.00    +0.000 C 
ATOM     11  O2  UNL     1      -5.381 100.489  80.528  0.00  0.00    +0.000 OA
ATOM     12  N4  UNL     1      -4.449  98.819  81.777  0.00  0.00    +0.000 N 
ATOM     13  C7  UNL     1      -5.725  98.099  81.876  0.00  0.00    +0.000 C 
ATOM     14  C8  UNL     1      -3.055 101.925  80.213  0.00  0.00    +0.000 C 
ENDROOT
TORSDOF 0
ENDMDL
MODEL 8
REMARK VINA RESULT:       1.7      1.805      3.844
REMARK  Name = .\Caffeine.pdb
REMARK  3 active torsions:
REMARK  status: ('A' for Active; 'I' for Inactive)
REMARK    1  A    between atoms: C1_1  and  N1_2
REMARK    2  A    between atoms: N3_9  and  C8_14
REMARK    3  A    between atoms: N4_12  and  C7_13
REMARK                            x       y       z     vdW  Elec       q    Type
REMARK                         _______ _______ _______ _____ _____    ______ ____
ROOT
ATOM      1  C1  UNL     1      -3.772  96.115  82.597  0.00  0.00    +0.000 C 
ATOM      2  N1  UNL     1      -4.073  97.487  82.198  0.00  0.00    +0.000 N 
ATOM      3  C2  UNL     1      -5.298  98.014  81.952  0.00  0.00    +0.000 C 
ATOM      4  N2  UNL     1      -5.251  99.320  81.580  0.00  0.00    +0.000 NA
ATOM      5  C3  UNL     1      -3.931  99.593  81.606  0.00  0.00    +0.000 C 
ATOM      6  C4  UNL     1      -3.222  98.500  81.972  0.00  0.00    +0.000 C 
ATOM      7  C5  UNL     1      -1.836  98.550  82.040  0.00  0.00    +0.000 C 
ATOM      8  O1  UNL     1      -1.173  97.525  82.360  0.00  0.00    +0.000 OA
ATOM      9  N3  UNL     1      -1.212  99.740  81.738  0.00  0.00    +0.000 N 
ATOM     10  C6  UNL     1      -1.957 100.836  81.337  0.00  0.00    +0.000 C 
ATOM     11  O2  UNL     1      -1.372 101.903  80.997  0.00  0.00    +0.000 OA
ATOM     12  N4  UNL     1      -3.335 100.776  81.296  0.00  0.00    +0.000 N 
ATOM     13  C7  UNL     1      -4.133 101.925  80.850  0.00  0.00    +0.000 C 
ATOM     14  C8  UNL     1       0.258  99.822  81.761  0.00  0.00    +0.000 C 
ENDROOT
TORSDOF 0
ENDMDL
