MODEL 1
REMARK VINA RESULT:      -4.4      0.000      0.000
REMARK  Name = .\Caffeine.pdb
REMARK  3 active torsions:
REMARK  status: ('A' for Active; 'I' for Inactive)
REMARK    1  A    between atoms: C1_1  and  N1_2
REMARK    2  A    between atoms: N3_9  and  C8_14
REMARK    3  A    between atoms: N4_12  and  C7_13
REMARK                            x       y       z     vdW  Elec       q    Type
REMARK                         _______ _______ _______ _____ _____    ______ ____
ROOT
ATOM      1  C1  UNL     1       0.603  89.672 107.456  0.00  0.00    +0.000 C 
ATOM      2  N1  UNL     1       0.075  89.210 108.735  0.00  0.00    +0.000 N 
ATOM      3  C2  UNL     1      -0.913  89.783 109.465  0.00  0.00    +0.000 C 
ATOM      4  N2  UNL     1      -1.170  89.126 110.625  0.00  0.00    +0.000 NA
ATOM      5  C3  UNL     1      -0.292  88.103 110.591  0.00  0.00    +0.000 C 
ATOM      6  C4  UNL     1       0.456  88.149 109.465  0.00  0.00    +0.000 C 
ATOM      7  C5  UNL     1       1.445  87.201 109.237  0.00  0.00    +0.000 C 
ATOM      8  O1  UNL     1       2.157  87.257 108.197  0.00  0.00    +0.000 OA
ATOM      9  N3  UNL     1       1.629  86.213 110.178  0.00  0.00    +0.000 N 
ATOM     10  C6  UNL     1       0.871  86.204 111.337  0.00  0.00    +0.000 C 
ATOM     11  O2  UNL     1       1.093  85.334 112.226  0.00  0.00    +0.000 OA
ATOM     12  N4  UNL     1      -0.122  87.141 111.538  0.00  0.00    +0.000 N 
ATOM     13  C7  UNL     1      -0.915  87.154 112.774  0.00  0.00    +0.000 C 
ATOM     14  C8  UNL     1       2.693  85.213 109.990  0.00  0.00    +0.000 C 
ENDROOT
TORSDOF 0
ENDMDL
MODEL 2
REMARK VINA RESULT:      -4.4      2.649      3.792
REMARK  Name = .\Caffeine.pdb
REMARK  3 active torsions:
REMARK  status: ('A' for Active; 'I' for Inactive)
REMARK    1  A    between atoms: C1_1  and  N1_2
REMARK    2  A    between atoms: N3_9  and  C8_14
REMARK    3  A    between atoms: N4_12  and  C7_13
REMARK                            x       y       z     vdW  Elec       q    Type
REMARK                         _______ _______ _______ _____ _____    ______ ____
ROOT
ATOM      1  C1  UNL     1      -0.725  89.329 107.612  0.00  0.00    +0.000 C 
ATOM      2  N1  UNL     1       0.257  88.899 108.603  0.00  0.00    +0.000 N 
ATOM      3  C2  UNL     1       1.309  88.066 108.401  0.00  0.00    +0.000 C 
ATOM      4  N2  UNL     1       2.034  87.841 109.527  0.00  0.00    +0.000 NA
ATOM      5  C3  UNL     1       1.387  88.577 110.454  0.00  0.00    +0.000 C 
ATOM      6  C4  UNL     1       0.323  89.209 109.908  0.00  0.00    +0.000 C 
ATOM      7  C5  UNL     1      -0.503  90.004 110.692  0.00  0.00    +0.000 C 
ATOM      8  O1  UNL     1      -1.507  90.577 110.187  0.00  0.00    +0.000 OA
ATOM      9  N3  UNL     1      -0.199  90.139 112.028  0.00  0.00    +0.000 N 
ATOM     10  C6  UNL     1       0.878  89.457 112.570  0.00  0.00    +0.000 C 
ATOM     11  O2  UNL     1       1.109  89.533 113.810  0.00  0.00    +0.000 OA
ATOM     12  N4  UNL     1       1.701  88.688 111.773  0.00  0.00    +0.000 N 
ATOM     13  C7  UNL     1       2.831  87.944 112.342  0.00  0.00    +0.000 C 
ATOM     14  C8  UNL     1      -1.072  90.942 112.900  0.00  0.00    +0.000 C 
ENDROOT
TORSDOF 0
ENDMDL
MODEL 3
REMARK VINA RESULT:      -4.4      3.388      5.496
REMARK  Name = .\Caffeine.pdb
REMARK  3 active torsions:
REMARK  status: ('A' for Active; 'I' for Inactive)
REMARK    1  A    between atoms: C1_1  and  N1_2
REMARK    2  A    between atoms: N3_9  and  C8_14
REMARK    3  A    between atoms: N4_12  and  C7_13
REMARK                            x       y       z     vdW  Elec       q    Type
REMARK                         _______ _______ _______ _____ _____    ______ ____
ROOT
ATOM      1  C1  UNL     1      -1.304  87.687 112.151  0.00  0.00    +0.000 C 
ATOM      2  N1  UNL     1      -0.361  88.418 111.310  0.00  0.00    +0.000 N 
ATOM      3  C2  UNL     1       0.480  87.896 110.383  0.00  0.00    +0.000 C 
ATOM      4  N2  UNL     1       1.251  88.833 109.774  0.00  0.00    +0.000 NA
ATOM      5  C3  UNL     1       0.853  89.979 110.363  0.00  0.00    +0.000 C 
ATOM      6  C4  UNL     1      -0.108  89.736 111.284  0.00  0.00    +0.000 C 
ATOM      7  C5  UNL     1      -0.646  90.776 112.032  0.00  0.00    +0.000 C 
ATOM      8  O1  UNL     1      -1.528  90.547 112.905  0.00  0.00    +0.000 OA
ATOM      9  N3  UNL     1      -0.184  92.052 111.799  0.00  0.00    +0.000 N 
ATOM     10  C6  UNL     1       0.822  92.271 110.872  0.00  0.00    +0.000 C 
ATOM     11  O2  UNL     1       1.287  93.435 110.714  0.00  0.00    +0.000 OA
ATOM     12  N4  UNL     1       1.330  91.230 110.123  0.00  0.00    +0.000 N 
ATOM     13  C7  UNL     1       2.413  91.448 109.155  0.00  0.00    +0.000 C 
ATOM     14  C8  UNL     1      -0.702  93.175 112.598  0.00  0.00    +0.000 C 
ENDROOT
TORSDOF 0
ENDMDL
MODEL 4
REMARK VINA RESULT:      -4.2      3.159      4.748
REMARK  Name = .\Caffeine.pdb
REMARK  3 active torsions:
REMARK  status: ('A' for Active; 'I' for Inactive)
REMARK    1  A    between atoms: C1_1  and  N1_2
REMARK    2  A    between atoms: N3_9  and  C8_14
REMARK    3  A    between atoms: N4_12  and  C7_13
REMARK                            x       y       z     vdW  Elec       q    Type
REMARK                         _______ _______ _______ _____ _____    ______ ____
ROOT
ATOM      1  C1  UNL     1      -1.997  91.781 113.442  0.00  0.00    +0.000 C 
ATOM      2  N1  UNL     1      -0.943  92.027 112.463  0.00  0.00    +0.000 N 
ATOM      3  C2  UNL     1      -0.415  93.227 112.116  0.00  0.00    +0.000 C 
ATOM      4  N2  UNL     1       0.542  93.131 111.157  0.00  0.00    +0.000 NA
ATOM      5  C3  UNL     1       0.596  91.805 110.916  0.00  0.00    +0.000 C 
ATOM      6  C4  UNL     1      -0.292  91.140 111.691  0.00  0.00    +0.000 C 
ATOM      7  C5  UNL     1      -0.424  89.762 111.588  0.00  0.00    +0.000 C 
ATOM      8  O1  UNL     1      -1.266  89.144 112.295  0.00  0.00    +0.000 OA
ATOM      9  N3  UNL     1       0.380  89.097 110.689  0.00  0.00    +0.000 N 
ATOM     10  C6  UNL     1       1.259  89.803 109.885  0.00  0.00    +0.000 C 
ATOM     11  O2  UNL     1       1.943  89.192 109.015  0.00  0.00    +0.000 OA
ATOM     12  N4  UNL     1       1.393  91.170 110.015  0.00  0.00    +0.000 N 
ATOM     13  C7  UNL     1       2.305  91.930 109.152  0.00  0.00    +0.000 C 
ATOM     14  C8  UNL     1       0.242  87.641 110.522  0.00  0.00    +0.000 C 
ENDROOT
TORSDOF 0
ENDMDL
MODEL 5
REMARK VINA RESULT:      -4.2      2.197      2.448
REMARK  Name = .\Caffeine.pdb
REMARK  3 active torsions:
REMARK  status: ('A' for Active; 'I' for Inactive)
REMARK    1  A    between atoms: C1_1  and  N1_2
REMARK    2  A    between atoms: N3_9  and  C8_14
REMARK    3  A    between atoms: N4_12  and  C7_13
REMARK                            x       y       z     vdW  Elec       q    Type
REMARK                         _______ _______ _______ _____ _____    ______ ____
ROOT
ATOM      1  C1  UNL     1       0.265  88.540 107.447  0.00  0.00    +0.000 C 
ATOM      2  N1  UNL     1      -0.237  89.117 108.690  0.00  0.00    +0.000 N 
ATOM      3  C2  UNL     1      -1.360  89.860 108.850  0.00  0.00    +0.000 C 
ATOM      4  N2  UNL     1      -1.550  90.271 110.131  0.00  0.00    +0.000 NA
ATOM      5  C3  UNL     1      -0.488  89.746 110.776  0.00  0.00    +0.000 C 
ATOM      6  C4  UNL     1       0.301  89.057 109.919  0.00  0.00    +0.000 C 
ATOM      7  C5  UNL     1       1.468  88.453 110.368  0.00  0.00    +0.000 C 
ATOM      8  O1  UNL     1       2.216  87.829 109.565  0.00  0.00    +0.000 OA
ATOM      9  N3  UNL     1       1.787  88.564 111.703  0.00  0.00    +0.000 N 
ATOM     10  C6  UNL     1       0.979  89.299 112.554  0.00  0.00    +0.000 C 
ATOM     11  O2  UNL     1       1.315  89.452 113.762  0.00  0.00    +0.000 OA
ATOM     12  N4  UNL     1      -0.188  89.875 112.096  0.00  0.00    +0.000 N 
ATOM     13  C7  UNL     1      -1.040  90.676 112.985  0.00  0.00    +0.000 C 
ATOM     14  C8  UNL     1       3.036  87.970 112.209  0.00  0.00    +0.000 C 
ENDROOT
TORSDOF 0
ENDMDL
MODEL 6
REMARK VINA RESULT:      -4.2      3.510      4.762
REMARK  Name = .\Caffeine.pdb
REMARK  3 active torsions:
REMARK  status: ('A' for Active; 'I' for Inactive)
REMARK    1  A    between atoms: C1_1  and  N1_2
REMARK    2  A    between atoms: N3_9  and  C8_14
REMARK    3  A    between atoms: N4_12  and  C7_13
REMARK                            x       y       z     vdW  Elec       q    Type
REMARK                         _______ _______ _______ _____ _____    ______ ____
ROOT
ATOM      1  C1  UNL     1       2.668  92.294 108.537  0.00  0.00    +0.000 C 
ATOM      2  N1  UNL     1       1.902  91.202 109.130  0.00  0.00    +0.000 N 
ATOM      3  C2  UNL     1       1.865  89.912 108.714  0.00  0.00    +0.000 C 
ATOM      4  N2  UNL     1       1.041  89.134 109.462  0.00  0.00    +0.000 NA
ATOM      5  C3  UNL     1       0.560  89.999 110.378  0.00  0.00    +0.000 C 
ATOM      6  C4  UNL     1       1.069  91.237 110.182  0.00  0.00    +0.000 C 
ATOM      7  C5  UNL     1       0.687  92.293 110.999  0.00  0.00    +0.000 C 
ATOM      8  O1  UNL     1       1.145  93.452 110.803  0.00  0.00    +0.000 OA
ATOM      9  N3  UNL     1      -0.209  92.040 112.014  0.00  0.00    +0.000 N 
ATOM     10  C6  UNL     1      -0.739  90.770 112.175  0.00  0.00    +0.000 C 
ATOM     11  O2  UNL     1      -1.611  90.563 113.066  0.00  0.00    +0.000 OA
ATOM     12  N4  UNL     1      -0.332  89.728 111.368  0.00  0.00    +0.000 N 
ATOM     13  C7  UNL     1      -0.905  88.384 111.517  0.00  0.00    +0.000 C 
ATOM     14  C8  UNL     1      -0.668  93.141 112.876  0.00  0.00    +0.000 C 
ENDROOT
TORSDOF 0
ENDMDL
MODEL 7
REMARK VINA RESULT:      -4.2      2.787      4.283
REMARK  Name = .\Caffeine.pdb
REMARK  3 active torsions:
REMARK  status: ('A' for Active; 'I' for Inactive)
REMARK    1  A    between atoms: C1_1  and  N1_2
REMARK    2  A    between atoms: N3_9  and  C8_14
REMARK    3  A    between atoms: N4_12  and  C7_13
REMARK                            x       y       z     vdW  Elec       q    Type
REMARK                         _______ _______ _______ _____ _____    ______ ____
ROOT
ATOM      1  C1  UNL     1       0.807  86.519 110.738  0.00  0.00    +0.000 C 
ATOM      2  N1  UNL     1       0.168  87.713 111.282  0.00  0.00    +0.000 N 
ATOM      3  C2  UNL     1      -0.909  87.760 112.104  0.00  0.00    +0.000 C 
ATOM      4  N2  UNL     1      -1.281  89.026 112.425  0.00  0.00    +0.000 NA
ATOM      5  C3  UNL     1      -0.379  89.780 111.765  0.00  0.00    +0.000 C 
ATOM      6  C4  UNL     1       0.488  89.001 111.078  0.00  0.00    +0.000 C 
ATOM      7  C5  UNL     1       1.488  89.574 110.303  0.00  0.00    +0.000 C 
ATOM      8  O1  UNL     1       2.283  88.848 109.645  0.00  0.00    +0.000 OA
ATOM      9  N3  UNL     1       1.577  90.948 110.267  0.00  0.00    +0.000 N 
ATOM     10  C6  UNL     1       0.660  91.724 110.956  0.00  0.00    +0.000 C 
ATOM     11  O2  UNL     1       0.708  92.983 110.862  0.00  0.00    +0.000 OA
ATOM     12  N4  UNL     1      -0.315  91.139 111.737  0.00  0.00    +0.000 N 
ATOM     13  C7  UNL     1      -1.306  91.953 112.452  0.00  0.00    +0.000 C 
ATOM     14  C8  UNL     1       2.600  91.593 109.427  0.00  0.00    +0.000 C 
ENDROOT
TORSDOF 0
ENDMDL
MODEL 8
REMARK VINA RESULT:      -4.1      3.494      4.431
REMARK  Name = .\Caffeine.pdb
REMARK  3 active torsions:
REMARK  status: ('A' for Active; 'I' for Inactive)
REMARK    1  A    between atoms: C1_1  and  N1_2
REMARK    2  A    between atoms: N3_9  and  C8_14
REMARK    3  A    between atoms: N4_12  and  C7_13
REMARK                            x       y       z     vdW  Elec       q    Type
REMARK                         _______ _______ _______ _____ _____    ______ ____
ROOT
ATOM      1  C1  UNL     1       3.053  91.559 107.949  0.00  0.00    +0.000 C 
ATOM      2  N1  UNL     1       2.330  92.078 109.105  0.00  0.00    +0.000 N 
ATOM      3  C2  UNL     1       2.518  93.274 109.716  0.00  0.00    +0.000 C 
ATOM      4  N2  UNL     1       1.700  93.462 110.784  0.00  0.00    +0.000 NA
ATOM      5  C3  UNL     1       0.980  92.322 110.816  0.00  0.00    +0.000 C 
ATOM      6  C4  UNL     1       1.354  91.490 109.817  0.00  0.00    +0.000 C 
ATOM      7  C5  UNL     1       0.758  90.244 109.677  0.00  0.00    +0.000 C 
ATOM      8  O1  UNL     1       1.122  89.459 108.759  0.00  0.00    +0.000 OA
ATOM      9  N3  UNL     1      -0.227  89.890 110.572  0.00  0.00    +0.000 N 
ATOM     10  C6  UNL     1      -0.571  90.746 111.605  0.00  0.00    +0.000 C 
ATOM     11  O2  UNL     1      -1.428  90.385 112.461  0.00  0.00    +0.000 OA
ATOM     12  N4  UNL     1       0.016  91.990 111.716  0.00  0.00    +0.000 N 
ATOM     13  C7  UNL     1      -0.326  92.896 112.820  0.00  0.00    +0.000 C 
ATOM     14  C8  UNL     1      -0.855  88.561 110.481  0.00  0.00    +0.000 C 
ENDROOT
TORSDOF 0
ENDMDL
MODEL 9
REMARK VINA RESULT:      -4.1      3.302      4.552
REMARK  Name = .\Caffeine.pdb
REMARK  3 active torsions:
REMARK  status: ('A' for Active; 'I' for Inactive)
REMARK    1  A    between atoms: C1_1  and  N1_2
REMARK    2  A    between atoms: N3_9  and  C8_14
REMARK    3  A    between atoms: N4_12  and  C7_13
REMARK                            x       y       z     vdW  Elec       q    Type
REMARK                         _______ _______ _______ _____ _____    ______ ____
ROOT
ATOM      1  C1  UNL     1       0.611  88.687 107.529  0.00  0.00    +0.000 C 
ATOM      2  N1  UNL     1       0.098  89.322 108.739  0.00  0.00    +0.000 N 
ATOM      3  C2  UNL     1      -1.020  88.982 109.428  0.00  0.00    +0.000 C 
ATOM      4  N2  UNL     1      -1.244  89.777 110.506  0.00  0.00    +0.000 NA
ATOM      5  C3  UNL     1      -0.207  90.638 110.466  0.00  0.00    +0.000 C 
ATOM      6  C4  UNL     1       0.596  90.373 109.410  0.00  0.00    +0.000 C 
ATOM      7  C5  UNL     1       1.715  91.157 109.162  0.00  0.00    +0.000 C 
ATOM      8  O1  UNL     1       2.453  90.923 108.166  0.00  0.00    +0.000 OA
ATOM      9  N3  UNL     1       1.986  92.195 110.025  0.00  0.00    +0.000 N 
ATOM     10  C6  UNL     1       1.132  92.465 111.081  0.00  0.00    +0.000 C 
ATOM     11  O2  UNL     1       1.351  93.462 111.827  0.00  0.00    +0.000 OA
ATOM     12  N4  UNL     1       0.036  91.663 111.325  0.00  0.00    +0.000 N 
ATOM     13  C7  UNL     1      -0.888  91.955 112.428  0.00  0.00    +0.000 C 
ATOM     14  C8  UNL     1       3.141  93.073 109.774  0.00  0.00    +0.000 C 
ENDROOT
TORSDOF 0
ENDMDL
