MODEL 1
REMARK VINA RESULT:      -4.6      0.000      0.000
REMARK  Name = .\Caffeine.pdb
REMARK  3 active torsions:
REMARK  status: ('A' for Active; 'I' for Inactive)
REMARK    1  A    between atoms: C1_1  and  N1_2
REMARK    2  A    between atoms: N3_9  and  C8_14
REMARK    3  A    between atoms: N4_12  and  C7_13
REMARK                            x       y       z     vdW  Elec       q    Type
REMARK                         _______ _______ _______ _____ _____    ______ ____
ROOT
ATOM      1  C1  UNL     1      10.404  48.530  17.138  0.00  0.00    +0.000 C 
ATOM      2  N1  UNL     1       9.528  49.387  17.931  0.00  0.00    +0.000 N 
ATOM      3  C2  UNL     1       8.460  50.095  17.488  0.00  0.00    +0.000 C 
ATOM      4  N2  UNL     1       7.854  50.815  18.467  0.00  0.00    +0.000 NA
ATOM      5  C3  UNL     1       8.594  50.524  19.556  0.00  0.00    +0.000 C 
ATOM      6  C4  UNL     1       9.598  49.673  19.241  0.00  0.00    +0.000 C 
ATOM      7  C5  UNL     1      10.501  49.259  20.211  0.00  0.00    +0.000 C 
ATOM      8  O1  UNL     1      11.449  48.482  19.914  0.00  0.00    +0.000 OA
ATOM      9  N3  UNL     1      10.336  49.727  21.496  0.00  0.00    +0.000 N 
ATOM     10  C6  UNL     1       9.319  50.621  21.787  0.00  0.00    +0.000 C 
ATOM     11  O2  UNL     1       9.217  51.097  22.953  0.00  0.00    +0.000 OA
ATOM     12  N4  UNL     1       8.418  51.005  20.816  0.00  0.00    +0.000 N 
ATOM     13  C7  UNL     1       7.350  51.970  21.109  0.00  0.00    +0.000 C 
ATOM     14  C8  UNL     1      11.296  49.341  22.544  0.00  0.00    +0.000 C 
ENDROOT
TORSDOF 0
ENDMDL
MODEL 2
REMARK VINA RESULT:      -4.4      1.619      3.561
REMARK  Name = .\Caffeine.pdb
REMARK  3 active torsions:
REMARK  status: ('A' for Active; 'I' for Inactive)
REMARK    1  A    between atoms: C1_1  and  N1_2
REMARK    2  A    between atoms: N3_9  and  C8_14
REMARK    3  A    between atoms: N4_12  and  C7_13
REMARK                            x       y       z     vdW  Elec       q    Type
REMARK                         _______ _______ _______ _____ _____    ______ ____
ROOT
ATOM      1  C1  UNL     1       9.838  51.981  22.600  0.00  0.00    +0.000 C 
ATOM      2  N1  UNL     1       9.062  51.532  21.448  0.00  0.00    +0.000 N 
ATOM      3  C2  UNL     1       7.906  52.067  20.984  0.00  0.00    +0.000 C 
ATOM      4  N2  UNL     1       7.413  51.413  19.901  0.00  0.00    +0.000 NA
ATOM      5  C3  UNL     1       8.320  50.436  19.700  0.00  0.00    +0.000 C 
ATOM      6  C4  UNL     1       9.307  50.500  20.624  0.00  0.00    +0.000 C 
ATOM      7  C5  UNL     1      10.337  49.569  20.620  0.00  0.00    +0.000 C 
ATOM      8  O1  UNL     1      11.246  49.616  21.494  0.00  0.00    +0.000 OA
ATOM      9  N3  UNL     1      10.330  48.595  19.647  0.00  0.00    +0.000 N 
ATOM     10  C6  UNL     1       9.293  48.532  18.731  0.00  0.00    +0.000 C 
ATOM     11  O2  UNL     1       9.260  47.594  17.885  0.00  0.00    +0.000 OA
ATOM     12  N4  UNL     1       8.289  49.477  18.736  0.00  0.00    +0.000 N 
ATOM     13  C7  UNL     1       7.173  49.406  17.784  0.00  0.00    +0.000 C 
ATOM     14  C8  UNL     1      11.384  47.567  19.634  0.00  0.00    +0.000 C 
ENDROOT
TORSDOF 0
ENDMDL
MODEL 3
REMARK VINA RESULT:      -4.3      1.495      2.999
REMARK  Name = .\Caffeine.pdb
REMARK  3 active torsions:
REMARK  status: ('A' for Active; 'I' for Inactive)
REMARK    1  A    between atoms: C1_1  and  N1_2
REMARK    2  A    between atoms: N3_9  and  C8_14
REMARK    3  A    between atoms: N4_12  and  C7_13
REMARK                            x       y       z     vdW  Elec       q    Type
REMARK                         _______ _______ _______ _____ _____    ______ ____
ROOT
ATOM      1  C1  UNL     1       9.194  48.950  16.859  0.00  0.00    +0.000 C 
ATOM      2  N1  UNL     1       9.855  48.913  18.160  0.00  0.00    +0.000 N 
ATOM      3  C2  UNL     1      10.919  48.150  18.513  0.00  0.00    +0.000 C 
ATOM      4  N2  UNL     1      11.295  48.325  19.806  0.00  0.00    +0.000 NA
ATOM      5  C3  UNL     1      10.414  49.243  20.254  0.00  0.00    +0.000 C 
ATOM      6  C4  UNL     1       9.549  49.595  19.275  0.00  0.00    +0.000 C 
ATOM      7  C5  UNL     1       8.537  50.512  19.526  0.00  0.00    +0.000 C 
ATOM      8  O1  UNL     1       7.717  50.825  18.620  0.00  0.00    +0.000 OA
ATOM      9  N3  UNL     1       8.450  51.057  20.788  0.00  0.00    +0.000 N 
ATOM     10  C6  UNL     1       9.329  50.657  21.782  0.00  0.00    +0.000 C 
ATOM     11  O2  UNL     1       9.199  51.111  22.954  0.00  0.00    +0.000 OA
ATOM     12  N4  UNL     1      10.342  49.761  21.509  0.00  0.00    +0.000 N 
ATOM     13  C7  UNL     1      11.264  49.314  22.561  0.00  0.00    +0.000 C 
ATOM     14  C8  UNL     1       7.367  52.003  21.104  0.00  0.00    +0.000 C 
ENDROOT
TORSDOF 0
ENDMDL
MODEL 4
REMARK VINA RESULT:      -4.3      1.771      3.768
REMARK  Name = .\Caffeine.pdb
REMARK  3 active torsions:
REMARK  status: ('A' for Active; 'I' for Inactive)
REMARK    1  A    between atoms: C1_1  and  N1_2
REMARK    2  A    between atoms: N3_9  and  C8_14
REMARK    3  A    between atoms: N4_12  and  C7_13
REMARK                            x       y       z     vdW  Elec       q    Type
REMARK                         _______ _______ _______ _____ _____    ______ ____
ROOT
ATOM      1  C1  UNL     1      12.104  49.615  23.325  0.00  0.00    +0.000 C 
ATOM      2  N1  UNL     1      10.998  50.446  22.859  0.00  0.00    +0.000 N 
ATOM      3  C2  UNL     1      10.475  51.532  23.481  0.00  0.00    +0.000 C 
ATOM      4  N2  UNL     1       9.435  52.084  22.805  0.00  0.00    +0.000 NA
ATOM      5  C3  UNL     1       9.328  51.292  21.719  0.00  0.00    +0.000 C 
ATOM      6  C4  UNL     1      10.257  50.309  21.747  0.00  0.00    +0.000 C 
ATOM      7  C5  UNL     1      10.311  49.360  20.735  0.00  0.00    +0.000 C 
ATOM      8  O1  UNL     1      11.165  48.432  20.773  0.00  0.00    +0.000 OA
ATOM      9  N3  UNL     1       9.405  49.457  19.703  0.00  0.00    +0.000 N 
ATOM     10  C6  UNL     1       8.443  50.454  19.711  0.00  0.00    +0.000 C 
ATOM     11  O2  UNL     1       7.574  50.495  18.795  0.00  0.00    +0.000 OA
ATOM     12  N4  UNL     1       8.418  51.402  20.714  0.00  0.00    +0.000 N 
ATOM     13  C7  UNL     1       7.388  52.448  20.744  0.00  0.00    +0.000 C 
ATOM     14  C8  UNL     1       9.405  48.448  18.631  0.00  0.00    +0.000 C 
ENDROOT
TORSDOF 0
ENDMDL
MODEL 5
REMARK VINA RESULT:      -4.3      1.862      4.563
REMARK  Name = .\Caffeine.pdb
REMARK  3 active torsions:
REMARK  status: ('A' for Active; 'I' for Inactive)
REMARK    1  A    between atoms: C1_1  and  N1_2
REMARK    2  A    between atoms: N3_9  and  C8_14
REMARK    3  A    between atoms: N4_12  and  C7_13
REMARK                            x       y       z     vdW  Elec       q    Type
REMARK                         _______ _______ _______ _____ _____    ______ ____
ROOT
ATOM      1  C1  UNL     1       7.462  51.986  20.871  0.00  0.00    +0.000 C 
ATOM      2  N1  UNL     1       8.645  51.132  20.857  0.00  0.00    +0.000 N 
ATOM      3  C2  UNL     1       9.591  51.031  21.824  0.00  0.00    +0.000 C 
ATOM      4  N2  UNL     1      10.584  50.161  21.510  0.00  0.00    +0.000 NA
ATOM      5  C3  UNL     1      10.218  49.712  20.293  0.00  0.00    +0.000 C 
ATOM      6  C4  UNL     1       9.061  50.291  19.896  0.00  0.00    +0.000 C 
ATOM      7  C5  UNL     1       8.512  49.991  18.656  0.00  0.00    +0.000 C 
ATOM      8  O1  UNL     1       7.445  50.547  18.277  0.00  0.00    +0.000 OA
ATOM      9  N3  UNL     1       9.169  49.084  17.856  0.00  0.00    +0.000 N 
ATOM     10  C6  UNL     1      10.367  48.527  18.271  0.00  0.00    +0.000 C 
ATOM     11  O2  UNL     1      10.998  47.748  17.502  0.00  0.00    +0.000 OA
ATOM     12  N4  UNL     1      10.888  48.820  19.515  0.00  0.00    +0.000 N 
ATOM     13  C7  UNL     1      12.169  48.253  19.955  0.00  0.00    +0.000 C 
ATOM     14  C8  UNL     1       8.639  48.770  16.518  0.00  0.00    +0.000 C 
ENDROOT
TORSDOF 0
ENDMDL
MODEL 6
REMARK VINA RESULT:      -4.2      2.582      4.142
REMARK  Name = .\Caffeine.pdb
REMARK  3 active torsions:
REMARK  status: ('A' for Active; 'I' for Inactive)
REMARK    1  A    between atoms: C1_1  and  N1_2
REMARK    2  A    between atoms: N3_9  and  C8_14
REMARK    3  A    between atoms: N4_12  and  C7_13
REMARK                            x       y       z     vdW  Elec       q    Type
REMARK                         _______ _______ _______ _____ _____    ______ ____
ROOT
ATOM      1  C1  UNL     1      12.239  50.744  24.459  0.00  0.00    +0.000 C 
ATOM      2  N1  UNL     1      11.146  51.277  23.652  0.00  0.00    +0.000 N 
ATOM      3  C2  UNL     1      10.725  52.565  23.597  0.00  0.00    +0.000 C 
ATOM      4  N2  UNL     1       9.669  52.746  22.762  0.00  0.00    +0.000 NA
ATOM      5  C3  UNL     1       9.444  51.504  22.288  0.00  0.00    +0.000 C 
ATOM      6  C4  UNL     1      10.322  50.621  22.819  0.00  0.00    +0.000 C 
ATOM      7  C5  UNL     1      10.255  49.275  22.487  0.00  0.00    +0.000 C 
ATOM      8  O1  UNL     1      11.060  48.448  22.997  0.00  0.00    +0.000 OA
ATOM      9  N3  UNL     1       9.284  48.871  21.598  0.00  0.00    +0.000 N 
ATOM     10  C6  UNL     1       8.377  49.788  21.092  0.00  0.00    +0.000 C 
ATOM     11  O2  UNL     1       7.448  49.397  20.330  0.00  0.00    +0.000 OA
ATOM     12  N4  UNL     1       8.472  51.126  21.416  0.00  0.00    +0.000 N 
ATOM     13  C7  UNL     1       7.502  52.102  20.903  0.00  0.00    +0.000 C 
ATOM     14  C8  UNL     1       9.156  47.446  21.251  0.00  0.00    +0.000 C 
ENDROOT
TORSDOF 0
ENDMDL
MODEL 7
REMARK VINA RESULT:      -4.2      1.800      4.486
REMARK  Name = .\Caffeine.pdb
REMARK  3 active torsions:
REMARK  status: ('A' for Active; 'I' for Inactive)
REMARK    1  A    between atoms: C1_1  and  N1_2
REMARK    2  A    between atoms: N3_9  and  C8_14
REMARK    3  A    between atoms: N4_12  and  C7_13
REMARK                            x       y       z     vdW  Elec       q    Type
REMARK                         _______ _______ _______ _____ _____    ______ ____
ROOT
ATOM      1  C1  UNL     1      11.409  50.856  24.132  0.00  0.00    +0.000 C 
ATOM      2  N1  UNL     1      11.129  50.143  22.889  0.00  0.00    +0.000 N 
ATOM      3  C2  UNL     1      11.800  49.076  22.392  0.00  0.00    +0.000 C 
ATOM      4  N2  UNL     1      11.311  48.645  21.201  0.00  0.00    +0.000 NA
ATOM      5  C3  UNL     1      10.290  49.496  20.970  0.00  0.00    +0.000 C 
ATOM      6  C4  UNL     1      10.178  50.395  21.975  0.00  0.00    +0.000 C 
ATOM      7  C5  UNL     1       9.205  51.385  21.930  0.00  0.00    +0.000 C 
ATOM      8  O1  UNL     1       9.114  52.236  22.856  0.00  0.00    +0.000 OA
ATOM      9  N3  UNL     1       8.356  51.413  20.846  0.00  0.00    +0.000 N 
ATOM     10  C6  UNL     1       8.509  50.500  19.816  0.00  0.00    +0.000 C 
ATOM     11  O2  UNL     1       7.769  50.577  18.794  0.00  0.00    +0.000 OA
ATOM     12  N4  UNL     1       9.468  49.511  19.887  0.00  0.00    +0.000 N 
ATOM     13  C7  UNL     1       9.653  48.553  18.789  0.00  0.00    +0.000 C 
ATOM     14  C8  UNL     1       7.336  52.471  20.743  0.00  0.00    +0.000 C 
ENDROOT
TORSDOF 0
ENDMDL
MODEL 8
REMARK VINA RESULT:      -4.1      2.386      3.082
REMARK  Name = .\Caffeine.pdb
REMARK  3 active torsions:
REMARK  status: ('A' for Active; 'I' for Inactive)
REMARK    1  A    between atoms: C1_1  and  N1_2
REMARK    2  A    between atoms: N3_9  and  C8_14
REMARK    3  A    between atoms: N4_12  and  C7_13
REMARK                            x       y       z     vdW  Elec       q    Type
REMARK                         _______ _______ _______ _____ _____    ______ ____
ROOT
ATOM      1  C1  UNL     1       7.529  49.196  20.160  0.00  0.00    +0.000 C 
ATOM      2  N1  UNL     1       8.118  50.294  20.921  0.00  0.00    +0.000 N 
ATOM      3  C2  UNL     1       7.724  51.591  20.920  0.00  0.00    +0.000 C 
ATOM      4  N2  UNL     1       8.486  52.381  21.719  0.00  0.00    +0.000 NA
ATOM      5  C3  UNL     1       9.384  51.514  22.230  0.00  0.00    +0.000 C 
ATOM      6  C4  UNL     1       9.171  50.266  21.754  0.00  0.00    +0.000 C 
ATOM      7  C5  UNL     1       9.999  49.217  22.131  0.00  0.00    +0.000 C 
ATOM      8  O1  UNL     1       9.814  48.057  21.671  0.00  0.00    +0.000 OA
ATOM      9  N3  UNL     1      11.028  49.483  23.007  0.00  0.00    +0.000 N 
ATOM     10  C6  UNL     1      11.244  50.775  23.458  0.00  0.00    +0.000 C 
ATOM     11  O2  UNL     1      12.230  51.021  24.208  0.00  0.00    +0.000 OA
ATOM     12  N4  UNL     1      10.398  51.801  23.090  0.00  0.00    +0.000 N 
ATOM     13  C7  UNL     1      10.632  53.178  23.543  0.00  0.00    +0.000 C 
ATOM     14  C8  UNL     1      11.951  48.406  23.400  0.00  0.00    +0.000 C 
ENDROOT
TORSDOF 0
ENDMDL
MODEL 9
REMARK VINA RESULT:      -4.1      2.490      3.955
REMARK  Name = .\Caffeine.pdb
REMARK  3 active torsions:
REMARK  status: ('A' for Active; 'I' for Inactive)
REMARK    1  A    between atoms: C1_1  and  N1_2
REMARK    2  A    between atoms: N3_9  and  C8_14
REMARK    3  A    between atoms: N4_12  and  C7_13
REMARK                            x       y       z     vdW  Elec       q    Type
REMARK                         _______ _______ _______ _____ _____    ______ ____
ROOT
ATOM      1  C1  UNL     1       7.408  52.245  20.900  0.00  0.00    +0.000 C 
ATOM      2  N1  UNL     1       8.140  51.009  21.159  0.00  0.00    +0.000 N 
ATOM      3  C2  UNL     1       7.863  49.778  20.664  0.00  0.00    +0.000 C 
ATOM      4  N2  UNL     1       8.719  48.820  21.105  0.00  0.00    +0.000 NA
ATOM      5  C3  UNL     1       9.557  49.511  21.905  0.00  0.00    +0.000 C 
ATOM      6  C4  UNL     1       9.214  50.819  21.943  0.00  0.00    +0.000 C 
ATOM      7  C5  UNL     1       9.929  51.713  22.729  0.00  0.00    +0.000 C 
ATOM      8  O1  UNL     1       9.597  52.929  22.782  0.00  0.00    +0.000 OA
ATOM      9  N3  UNL     1      10.998  51.232  23.452  0.00  0.00    +0.000 N 
ATOM     10  C6  UNL     1      11.311  49.883  23.420  0.00  0.00    +0.000 C 
ATOM     11  O2  UNL     1      12.251  49.439  24.140  0.00  0.00    +0.000 OA
ATOM     12  N4  UNL     1      10.603  49.013  22.617  0.00  0.00    +0.000 N 
ATOM     13  C7  UNL     1      10.912  47.577  22.594  0.00  0.00    +0.000 C 
ATOM     14  C8  UNL     1      11.758  52.140  24.328  0.00  0.00    +0.000 C 
ENDROOT
TORSDOF 0
ENDMDL
