MODEL 1
REMARK VINA RESULT:      -4.0      0.000      0.000
REMARK  Name = .\Caffeine.pdb
REMARK  3 active torsions:
REMARK  status: ('A' for Active; 'I' for Inactive)
REMARK    1  A    between atoms: C1_1  and  N1_2
REMARK    2  A    between atoms: N3_9  and  C8_14
REMARK    3  A    between atoms: N4_12  and  C7_13
REMARK                            x       y       z     vdW  Elec       q    Type
REMARK                         _______ _______ _______ _____ _____    ______ ____
ROOT
ATOM      1  C1  UNL     1      11.647  92.864  96.181  0.00  0.00    +0.000 C 
ATOM      2  N1  UNL     1      12.852  93.361  96.838  0.00  0.00    +0.000 N 
ATOM      3  C2  UNL     1      13.666  94.355  96.405  0.00  0.00    +0.000 C 
ATOM      4  N2  UNL     1      14.723  94.576  97.228  0.00  0.00    +0.000 NA
ATOM      5  C3  UNL     1      14.534  93.670  98.209  0.00  0.00    +0.000 C 
ATOM      6  C4  UNL     1      13.419  92.938  97.979  0.00  0.00    +0.000 C 
ATOM      7  C5  UNL     1      13.048  91.926  98.854  0.00  0.00    +0.000 C 
ATOM      8  O1  UNL     1      12.020  91.230  98.629  0.00  0.00    +0.000 OA
ATOM      9  N3  UNL     1      13.836  91.700  99.960  0.00  0.00    +0.000 N 
ATOM     10  C6  UNL     1      14.989  92.441 100.158  0.00  0.00    +0.000 C 
ATOM     11  O2  UNL     1      15.742  92.181 101.139  0.00  0.00    +0.000 OA
ATOM     12  N4  UNL     1      15.332  93.458  99.290  0.00  0.00    +0.000 N 
ATOM     13  C7  UNL     1      16.564  94.234  99.478  0.00  0.00    +0.000 C 
ATOM     14  C8  UNL     1      13.497  90.610 100.890  0.00  0.00    +0.000 C 
ENDROOT
TORSDOF 0
ENDMDL
MODEL 2
REMARK VINA RESULT:      -3.9      1.581      3.682
REMARK  Name = .\Caffeine.pdb
REMARK  3 active torsions:
REMARK  status: ('A' for Active; 'I' for Inactive)
REMARK    1  A    between atoms: C1_1  and  N1_2
REMARK    2  A    between atoms: N3_9  and  C8_14
REMARK    3  A    between atoms: N4_12  and  C7_13
REMARK                            x       y       z     vdW  Elec       q    Type
REMARK                         _______ _______ _______ _____ _____    ______ ____
ROOT
ATOM      1  C1  UNL     1      12.827  90.622 101.788  0.00  0.00    +0.000 C 
ATOM      2  N1  UNL     1      13.873  91.468 101.222  0.00  0.00    +0.000 N 
ATOM      3  C2  UNL     1      15.024  91.855 101.826  0.00  0.00    +0.000 C 
ATOM      4  N2  UNL     1      15.790  92.661 101.046  0.00  0.00    +0.000 NA
ATOM      5  C3  UNL     1      15.065  92.761  99.913  0.00  0.00    +0.000 C 
ATOM      6  C4  UNL     1      13.917  92.053 100.014  0.00  0.00    +0.000 C 
ATOM      7  C5  UNL     1      13.004  92.038  98.968  0.00  0.00    +0.000 C 
ATOM      8  O1  UNL     1      11.923  91.395  99.070  0.00  0.00    +0.000 OA
ATOM      9  N3  UNL     1      13.307  92.750  97.829  0.00  0.00    +0.000 N 
ATOM     10  C6  UNL     1      14.475  93.492  97.762  0.00  0.00    +0.000 C 
ATOM     11  O2  UNL     1      14.712  94.197  96.740  0.00  0.00    +0.000 OA
ATOM     12  N4  UNL     1      15.381  93.479  98.802  0.00  0.00    +0.000 N 
ATOM     13  C7  UNL     1      16.610  94.280  98.749  0.00  0.00    +0.000 C 
ATOM     14  C8  UNL     1      12.347  92.791  96.714  0.00  0.00    +0.000 C 
ENDROOT
TORSDOF 0
ENDMDL
MODEL 3
REMARK VINA RESULT:      -3.8      0.892      3.417
REMARK  Name = .\Caffeine.pdb
REMARK  3 active torsions:
REMARK  status: ('A' for Active; 'I' for Inactive)
REMARK    1  A    between atoms: C1_1  and  N1_2
REMARK    2  A    between atoms: N3_9  and  C8_14
REMARK    3  A    between atoms: N4_12  and  C7_13
REMARK                            x       y       z     vdW  Elec       q    Type
REMARK                         _______ _______ _______ _____ _____    ______ ____
ROOT
ATOM      1  C1  UNL     1      17.239  94.699  99.443  0.00  0.00    +0.000 C 
ATOM      2  N1  UNL     1      16.071  94.517  98.588  0.00  0.00    +0.000 N 
ATOM      3  C2  UNL     1      15.716  95.272  97.519  0.00  0.00    +0.000 C 
ATOM      4  N2  UNL     1      14.561  94.862  96.935  0.00  0.00    +0.000 NA
ATOM      5  C3  UNL     1      14.202  93.803  97.689  0.00  0.00    +0.000 C 
ATOM      6  C4  UNL     1      15.099  93.594  98.680  0.00  0.00    +0.000 C 
ATOM      7  C5  UNL     1      14.912  92.566  99.595  0.00  0.00    +0.000 C 
ATOM      8  O1  UNL     1      15.737  92.384 100.532  0.00  0.00    +0.000 OA
ATOM      9  N3  UNL     1      13.801  91.765  99.455  0.00  0.00    +0.000 N 
ATOM     10  C6  UNL     1      12.881  92.017  98.451  0.00  0.00    +0.000 C 
ATOM     11  O2  UNL     1      11.830  91.320  98.371  0.00  0.00    +0.000 OA
ATOM     12  N4  UNL     1      13.094  93.030  97.537  0.00  0.00    +0.000 N 
ATOM     13  C7  UNL     1      12.114  93.320  96.483  0.00  0.00    +0.000 C 
ATOM     14  C8  UNL     1      13.546  90.689 100.428  0.00  0.00    +0.000 C 
ENDROOT
TORSDOF 0
ENDMDL
MODEL 4
REMARK VINA RESULT:      -3.8      2.384      4.103
REMARK  Name = .\Caffeine.pdb
REMARK  3 active torsions:
REMARK  status: ('A' for Active; 'I' for Inactive)
REMARK    1  A    between atoms: C1_1  and  N1_2
REMARK    2  A    between atoms: N3_9  and  C8_14
REMARK    3  A    between atoms: N4_12  and  C7_13
REMARK                            x       y       z     vdW  Elec       q    Type
REMARK                         _______ _______ _______ _____ _____    ______ ____
ROOT
ATOM      1  C1  UNL     1      13.518  89.321 102.292  0.00  0.00    +0.000 C 
ATOM      2  N1  UNL     1      14.083  89.900 101.078  0.00  0.00    +0.000 N 
ATOM      3  C2  UNL     1      15.044  89.361 100.287  0.00  0.00    +0.000 C 
ATOM      4  N2  UNL     1      15.375  90.152  99.234  0.00  0.00    +0.000 NA
ATOM      5  C3  UNL     1      14.569  91.222  99.397  0.00  0.00    +0.000 C 
ATOM      6  C4  UNL     1      13.797  91.078 100.499  0.00  0.00    +0.000 C 
ATOM      7  C5  UNL     1      12.908  92.077 100.872  0.00  0.00    +0.000 C 
ATOM      8  O1  UNL     1      12.204  91.952 101.911  0.00  0.00    +0.000 OA
ATOM      9  N3  UNL     1      12.828  93.204 100.085  0.00  0.00    +0.000 N 
ATOM     10  C6  UNL     1      13.650  93.341  98.978  0.00  0.00    +0.000 C 
ATOM     11  O2  UNL     1      13.618  94.408  98.301  0.00  0.00    +0.000 OA
ATOM     12  N4  UNL     1      14.513  92.329  98.610  0.00  0.00    +0.000 N 
ATOM     13  C7  UNL     1      15.405  92.475  97.453  0.00  0.00    +0.000 C 
ATOM     14  C8  UNL     1      11.926  94.302 100.468  0.00  0.00    +0.000 C 
ENDROOT
TORSDOF 0
ENDMDL
MODEL 5
REMARK VINA RESULT:      -3.7      2.144      3.223
REMARK  Name = .\Caffeine.pdb
REMARK  3 active torsions:
REMARK  status: ('A' for Active; 'I' for Inactive)
REMARK    1  A    between atoms: C1_1  and  N1_2
REMARK    2  A    between atoms: N3_9  and  C8_14
REMARK    3  A    between atoms: N4_12  and  C7_13
REMARK                            x       y       z     vdW  Elec       q    Type
REMARK                         _______ _______ _______ _____ _____    ______ ____
ROOT
ATOM      1  C1  UNL     1      14.174  93.683  97.186  0.00  0.00    +0.000 C 
ATOM      2  N1  UNL     1      13.517  93.278  98.425  0.00  0.00    +0.000 N 
ATOM      3  C2  UNL     1      12.562  93.961  99.103  0.00  0.00    +0.000 C 
ATOM      4  N2  UNL     1      12.159  93.331 100.237  0.00  0.00    +0.000 NA
ATOM      5  C3  UNL     1      12.909  92.210 100.240  0.00  0.00    +0.000 C 
ATOM      6  C4  UNL     1      13.725  92.174  99.161  0.00  0.00    +0.000 C 
ATOM      7  C5  UNL     1      14.605  91.117  98.978  0.00  0.00    +0.000 C 
ATOM      8  O1  UNL     1      15.381  91.094  97.984  0.00  0.00    +0.000 OA
ATOM      9  N3  UNL     1      14.613  90.107  99.914  0.00  0.00    +0.000 N 
ATOM     10  C6  UNL     1      13.790  90.180 101.026  0.00  0.00    +0.000 C 
ATOM     11  O2  UNL     1      13.853  89.283 101.914  0.00  0.00    +0.000 OA
ATOM     12  N4  UNL     1      12.906  91.228 101.181  0.00  0.00    +0.000 N 
ATOM     13  C7  UNL     1      12.046  91.327 102.368  0.00  0.00    +0.000 C 
ATOM     14  C8  UNL     1      15.560  88.988  99.776  0.00  0.00    +0.000 C 
ENDROOT
TORSDOF 0
ENDMDL
MODEL 6
REMARK VINA RESULT:      -3.7      2.210      4.395
REMARK  Name = .\Caffeine.pdb
REMARK  3 active torsions:
REMARK  status: ('A' for Active; 'I' for Inactive)
REMARK    1  A    between atoms: C1_1  and  N1_2
REMARK    2  A    between atoms: N3_9  and  C8_14
REMARK    3  A    between atoms: N4_12  and  C7_13
REMARK                            x       y       z     vdW  Elec       q    Type
REMARK                         _______ _______ _______ _____ _____    ______ ____
ROOT
ATOM      1  C1  UNL     1      15.431  88.964  99.396  0.00  0.00    +0.000 C 
ATOM      2  N1  UNL     1      14.516  89.892 100.052  0.00  0.00    +0.000 N 
ATOM      3  C2  UNL     1      13.784  89.662 101.171  0.00  0.00    +0.000 C 
ATOM      4  N2  UNL     1      13.009  90.718 101.527  0.00  0.00    +0.000 NA
ATOM      5  C3  UNL     1      13.289  91.632 100.576  0.00  0.00    +0.000 C 
ATOM      6  C4  UNL     1      14.187  91.142  99.689  0.00  0.00    +0.000 C 
ATOM      7  C5  UNL     1      14.600  91.909  98.608  0.00  0.00    +0.000 C 
ATOM      8  O1  UNL     1      15.421  91.445  97.770  0.00  0.00    +0.000 OA
ATOM      9  N3  UNL     1      14.082  93.178  98.474  0.00  0.00    +0.000 N 
ATOM     10  C6  UNL     1      13.141  93.646  99.377  0.00  0.00    +0.000 C 
ATOM     11  O2  UNL     1      12.620  94.785  99.208  0.00  0.00    +0.000 OA
ATOM     12  N4  UNL     1      12.758  92.879 100.458  0.00  0.00    +0.000 N 
ATOM     13  C7  UNL     1      11.744  93.356 101.408  0.00  0.00    +0.000 C 
ATOM     14  C8  UNL     1      14.465  94.008  97.320  0.00  0.00    +0.000 C 
ENDROOT
TORSDOF 0
ENDMDL
MODEL 7
REMARK VINA RESULT:      -3.7      2.115      2.646
REMARK  Name = .\Caffeine.pdb
REMARK  3 active torsions:
REMARK  status: ('A' for Active; 'I' for Inactive)
REMARK    1  A    between atoms: C1_1  and  N1_2
REMARK    2  A    between atoms: N3_9  and  C8_14
REMARK    3  A    between atoms: N4_12  and  C7_13
REMARK                            x       y       z     vdW  Elec       q    Type
REMARK                         _______ _______ _______ _____ _____    ______ ____
ROOT
ATOM      1  C1  UNL     1      12.177  94.768  98.537  0.00  0.00    +0.000 C 
ATOM      2  N1  UNL     1      13.052  93.601  98.475  0.00  0.00    +0.000 N 
ATOM      3  C2  UNL     1      13.919  93.284  97.482  0.00  0.00    +0.000 C 
ATOM      4  N2  UNL     1      14.581  92.119  97.704  0.00  0.00    +0.000 NA
ATOM      5  C3  UNL     1      14.090  91.716  98.893  0.00  0.00    +0.000 C 
ATOM      6  C4  UNL     1      13.173  92.596  99.357  0.00  0.00    +0.000 C 
ATOM      7  C5  UNL     1      12.517  92.363 100.559  0.00  0.00    +0.000 C 
ATOM      8  O1  UNL     1      11.647  93.172 100.981  0.00  0.00    +0.000 OA
ATOM      9  N3  UNL     1      12.837  91.224 101.265  0.00  0.00    +0.000 N 
ATOM     10  C6  UNL     1      13.757  90.323 100.754  0.00  0.00    +0.000 C 
ATOM     11  O2  UNL     1      13.994  89.248 101.375  0.00  0.00    +0.000 OA
ATOM     12  N4  UNL     1      14.415  90.581  99.569  0.00  0.00    +0.000 N 
ATOM     13  C7  UNL     1      15.374  89.621  99.008  0.00  0.00    +0.000 C 
ATOM     14  C8  UNL     1      12.136  90.922 102.524  0.00  0.00    +0.000 C 
ENDROOT
TORSDOF 0
ENDMDL
MODEL 8
REMARK VINA RESULT:      -3.6      1.538      3.735
REMARK  Name = .\Caffeine.pdb
REMARK  3 active torsions:
REMARK  status: ('A' for Active; 'I' for Inactive)
REMARK    1  A    between atoms: C1_1  and  N1_2
REMARK    2  A    between atoms: N3_9  and  C8_14
REMARK    3  A    between atoms: N4_12  and  C7_13
REMARK                            x       y       z     vdW  Elec       q    Type
REMARK                         _______ _______ _______ _____ _____    ______ ____
ROOT
ATOM      1  C1  UNL     1      16.796  95.355  97.611  0.00  0.00    +0.000 C 
ATOM      2  N1  UNL     1      16.206  94.485  98.624  0.00  0.00    +0.000 N 
ATOM      3  C2  UNL     1      16.704  94.211  99.854  0.00  0.00    +0.000 C 
ATOM      4  N2  UNL     1      15.932  93.347 100.562  0.00  0.00    +0.000 NA
ATOM      5  C3  UNL     1      14.914  93.090  99.715  0.00  0.00    +0.000 C 
ATOM      6  C4  UNL     1      15.074  93.766  98.554  0.00  0.00    +0.000 C 
ATOM      7  C5  UNL     1      14.152  93.627  97.525  0.00  0.00    +0.000 C 
ATOM      8  O1  UNL     1      14.312  94.241  96.435  0.00  0.00    +0.000 OA
ATOM      9  N3  UNL     1      13.071  92.798  97.728  0.00  0.00    +0.000 N 
ATOM     10  C6  UNL     1      12.945  92.094  98.914  0.00  0.00    +0.000 C 
ATOM     11  O2  UNL     1      11.987  91.284  99.064  0.00  0.00    +0.000 OA
ATOM     12  N4  UNL     1      13.859  92.260  99.933  0.00  0.00    +0.000 N 
ATOM     13  C7  UNL     1      13.747  91.500 101.185  0.00  0.00    +0.000 C 
ATOM     14  C8  UNL     1      12.091  92.595  96.647  0.00  0.00    +0.000 C 
ENDROOT
TORSDOF 0
ENDMDL
MODEL 9
REMARK VINA RESULT:      -3.4      2.785      4.896
REMARK  Name = .\Caffeine.pdb
REMARK  3 active torsions:
REMARK  status: ('A' for Active; 'I' for Inactive)
REMARK    1  A    between atoms: C1_1  and  N1_2
REMARK    2  A    between atoms: N3_9  and  C8_14
REMARK    3  A    between atoms: N4_12  and  C7_13
REMARK                            x       y       z     vdW  Elec       q    Type
REMARK                         _______ _______ _______ _____ _____    ______ ____
ROOT
ATOM      1  C1  UNL     1      16.122  88.994 102.513  0.00  0.00    +0.000 C 
ATOM      2  N1  UNL     1      15.364  89.513 101.378  0.00  0.00    +0.000 N 
ATOM      3  C2  UNL     1      15.459  89.117 100.084  0.00  0.00    +0.000 C 
ATOM      4  N2  UNL     1      14.633  89.805  99.255  0.00  0.00    +0.000 NA
ATOM      5  C3  UNL     1      14.007  90.657 100.092  0.00  0.00    +0.000 C 
ATOM      6  C4  UNL     1      14.442  90.489 101.362  0.00  0.00    +0.000 C 
ATOM      7  C5  UNL     1      13.947  91.283 102.387  0.00  0.00    +0.000 C 
ATOM      8  O1  UNL     1      14.368  91.141 103.568  0.00  0.00    +0.000 OA
ATOM      9  N3  UNL     1      12.998  92.231 102.076  0.00  0.00    +0.000 N 
ATOM     10  C6  UNL     1      12.590  92.405 100.764  0.00  0.00    +0.000 C 
ATOM     11  O2  UNL     1      11.769  93.322 100.478  0.00  0.00    +0.000 OA
ATOM     12  N4  UNL     1      13.077  91.592  99.760  0.00  0.00    +0.000 N 
ATOM     13  C7  UNL     1      12.668  91.784  98.363  0.00  0.00    +0.000 C 
ATOM     14  C8  UNL     1      12.477  93.119 103.129  0.00  0.00    +0.000 C 
ENDROOT
TORSDOF 0
ENDMDL
