MODEL 1
REMARK VINA RESULT:      13.1      0.000      0.000
REMARK  Name = .\Caffeine.pdb
REMARK  3 active torsions:
REMARK  status: ('A' for Active; 'I' for Inactive)
REMARK    1  A    between atoms: C1_1  and  N1_2
REMARK    2  A    between atoms: N3_9  and  C8_14
REMARK    3  A    between atoms: N4_12  and  C7_13
REMARK                            x       y       z     vdW  Elec       q    Type
REMARK                         _______ _______ _______ _____ _____    ______ ____
ROOT
ATOM      1  C1  UNL     1      -4.908  84.029  60.656  0.00  0.00    +0.000 C 
ATOM      2  N1  UNL     1      -4.515  83.502  61.959  0.00  0.00    +0.000 N 
ATOM      3  C2  UNL     1      -3.727  84.109  62.881  0.00  0.00    +0.000 C 
ATOM      4  N2  UNL     1      -3.527  83.355  63.992  0.00  0.00    +0.000 NA
ATOM      5  C3  UNL     1      -4.233  82.236  63.727  0.00  0.00    +0.000 C 
ATOM      6  C4  UNL     1      -4.823  82.318  62.512  0.00  0.00    +0.000 C 
ATOM      7  C5  UNL     1      -5.581  81.261  62.024  0.00  0.00    +0.000 C 
ATOM      8  O1  UNL     1      -6.113  81.328  60.882  0.00  0.00    +0.000 OA
ATOM      9  N3  UNL     1      -5.723  80.143  62.815  0.00  0.00    +0.000 N 
ATOM     10  C6  UNL     1      -5.084  80.071  64.042  0.00  0.00    +0.000 C 
ATOM     11  O2  UNL     1      -5.165  79.015  64.730  0.00  0.00    +0.000 OA
ATOM     12  N4  UNL     1      -4.353  81.139  64.520  0.00  0.00    +0.000 N 
ATOM     13  C7  UNL     1      -3.653  81.064  65.809  0.00  0.00    +0.000 C 
ATOM     14  C8  UNL     1      -6.486  78.986  62.317  0.00  0.00    +0.000 C 
ENDROOT
TORSDOF 0
ENDMDL
MODEL 2
REMARK VINA RESULT:      13.6      1.644      3.896
REMARK  Name = .\Caffeine.pdb
REMARK  3 active torsions:
REMARK  status: ('A' for Active; 'I' for Inactive)
REMARK    1  A    between atoms: C1_1  and  N1_2
REMARK    2  A    between atoms: N3_9  and  C8_14
REMARK    3  A    between atoms: N4_12  and  C7_13
REMARK                            x       y       z     vdW  Elec       q    Type
REMARK                         _______ _______ _______ _____ _____    ______ ____
ROOT
ATOM      1  C1  UNL     1      -3.134  82.845  65.857  0.00  0.00    +0.000 C 
ATOM      2  N1  UNL     1      -3.906  81.863  65.102  0.00  0.00    +0.000 N 
ATOM      3  C2  UNL     1      -4.226  80.604  65.490  0.00  0.00    +0.000 C 
ATOM      4  N2  UNL     1      -4.940  79.923  64.557  0.00  0.00    +0.000 NA
ATOM      5  C3  UNL     1      -5.057  80.819  63.556  0.00  0.00    +0.000 C 
ATOM      6  C4  UNL     1      -4.438  81.979  63.875  0.00  0.00    +0.000 C 
ATOM      7  C5  UNL     1      -4.413  83.035  62.974  0.00  0.00    +0.000 C 
ATOM      8  O1  UNL     1      -3.818  84.109  63.262  0.00  0.00    +0.000 OA
ATOM      9  N3  UNL     1      -5.043  82.871  61.760  0.00  0.00    +0.000 N 
ATOM     10  C6  UNL     1      -5.644  81.663  61.445  0.00  0.00    +0.000 C 
ATOM     11  O2  UNL     1      -6.160  81.498  60.303  0.00  0.00    +0.000 OA
ATOM     12  N4  UNL     1      -5.678  80.631  62.360  0.00  0.00    +0.000 N 
ATOM     13  C7  UNL     1      -6.292  79.340  62.027  0.00  0.00    +0.000 C 
ATOM     14  C8  UNL     1      -5.005  83.953  60.763  0.00  0.00    +0.000 C 
ENDROOT
TORSDOF 0
ENDMDL
MODEL 3
REMARK VINA RESULT:      13.7      1.522      2.315
REMARK  Name = .\Caffeine.pdb
REMARK  3 active torsions:
REMARK  status: ('A' for Active; 'I' for Inactive)
REMARK    1  A    between atoms: C1_1  and  N1_2
REMARK    2  A    between atoms: N3_9  and  C8_14
REMARK    3  A    between atoms: N4_12  and  C7_13
REMARK                            x       y       z     vdW  Elec       q    Type
REMARK                         _______ _______ _______ _____ _____    ______ ____
ROOT
ATOM      1  C1  UNL     1      -6.429  81.614  60.041  0.00  0.00    +0.000 C 
ATOM      2  N1  UNL     1      -5.651  82.394  60.998  0.00  0.00    +0.000 N 
ATOM      3  C2  UNL     1      -5.193  83.661  60.838  0.00  0.00    +0.000 C 
ATOM      4  N2  UNL     1      -4.481  84.109  61.903  0.00  0.00    +0.000 NA
ATOM      5  C3  UNL     1      -4.513  83.061  62.750  0.00  0.00    +0.000 C 
ATOM      6  C4  UNL     1      -5.208  82.031  62.213  0.00  0.00    +0.000 C 
ATOM      7  C5  UNL     1      -5.346  80.836  62.907  0.00  0.00    +0.000 C 
ATOM      8  O1  UNL     1      -5.976  79.869  62.398  0.00  0.00    +0.000 OA
ATOM      9  N3  UNL     1      -4.769  80.737  64.153  0.00  0.00    +0.000 N 
ATOM     10  C6  UNL     1      -4.037  81.794  64.669  0.00  0.00    +0.000 C 
ATOM     11  O2  UNL     1      -3.454  81.669  65.783  0.00  0.00    +0.000 OA
ATOM     12  N4  UNL     1      -3.928  82.982  63.975  0.00  0.00    +0.000 N 
ATOM     13  C7  UNL     1      -3.135  84.099  64.503  0.00  0.00    +0.000 C 
ATOM     14  C8  UNL     1      -4.860  79.473  64.903  0.00  0.00    +0.000 C 
ENDROOT
TORSDOF 0
ENDMDL
MODEL 4
REMARK VINA RESULT:      14.3      1.577      3.616
REMARK  Name = .\Caffeine.pdb
REMARK  3 active torsions:
REMARK  status: ('A' for Active; 'I' for Inactive)
REMARK    1  A    between atoms: C1_1  and  N1_2
REMARK    2  A    between atoms: N3_9  and  C8_14
REMARK    3  A    between atoms: N4_12  and  C7_13
REMARK                            x       y       z     vdW  Elec       q    Type
REMARK                         _______ _______ _______ _____ _____    ______ ____
ROOT
ATOM      1  C1  UNL     1      -6.627  78.888  61.749  0.00  0.00    +0.000 C 
ATOM      2  N1  UNL     1      -5.860  79.476  62.843  0.00  0.00    +0.000 N 
ATOM      3  C2  UNL     1      -5.580  78.906  64.041  0.00  0.00    +0.000 C 
ATOM      4  N2  UNL     1      -4.859  79.714  64.860  0.00  0.00    +0.000 NA
ATOM      5  C3  UNL     1      -4.695  80.827  64.116  0.00  0.00    +0.000 C 
ATOM      6  C4  UNL     1      -5.294  80.691  62.911  0.00  0.00    +0.000 C 
ATOM      7  C5  UNL     1      -5.271  81.732  61.991  0.00  0.00    +0.000 C 
ATOM      8  O1  UNL     1      -5.847  81.613  60.875  0.00  0.00    +0.000 OA
ATOM      9  N3  UNL     1      -4.613  82.891  62.337  0.00  0.00    +0.000 N 
ATOM     10  C6  UNL     1      -4.034  83.018  63.589  0.00  0.00    +0.000 C 
ATOM     11  O2  UNL     1      -3.492  84.109  63.923  0.00  0.00    +0.000 OA
ATOM     12  N4  UNL     1      -4.048  81.966  64.482  0.00  0.00    +0.000 N 
ATOM     13  C7  UNL     1      -3.457  82.098  65.820  0.00  0.00    +0.000 C 
ATOM     14  C8  UNL     1      -4.600  84.031  61.405  0.00  0.00    +0.000 C 
ENDROOT
TORSDOF 0
ENDMDL
MODEL 5
REMARK VINA RESULT:      15.2      0.939      3.389
REMARK  Name = .\Caffeine.pdb
REMARK  3 active torsions:
REMARK  status: ('A' for Active; 'I' for Inactive)
REMARK    1  A    between atoms: C1_1  and  N1_2
REMARK    2  A    between atoms: N3_9  and  C8_14
REMARK    3  A    between atoms: N4_12  and  C7_13
REMARK                            x       y       z     vdW  Elec       q    Type
REMARK                         _______ _______ _______ _____ _____    ______ ____
ROOT
ATOM      1  C1  UNL     1      -3.259  81.538  65.858  0.00  0.00    +0.000 C 
ATOM      2  N1  UNL     1      -3.576  82.319  64.666  0.00  0.00    +0.000 N 
ATOM      3  C2  UNL     1      -3.192  83.591  64.398  0.00  0.00    +0.000 C 
ATOM      4  N2  UNL     1      -3.664  84.052  63.211  0.00  0.00    +0.000 NA
ATOM      5  C3  UNL     1      -4.366  83.002  62.738  0.00  0.00    +0.000 C 
ATOM      6  C4  UNL     1      -4.320  81.964  63.605  0.00  0.00    +0.000 C 
ATOM      7  C5  UNL     1      -4.999  80.785  63.330  0.00  0.00    +0.000 C 
ATOM      8  O1  UNL     1      -4.973  79.825  64.147  0.00  0.00    +0.000 OA
ATOM      9  N3  UNL     1      -5.704  80.701  62.150  0.00  0.00    +0.000 N 
ATOM     10  C6  UNL     1      -5.761  81.787  61.292  0.00  0.00    +0.000 C 
ATOM     11  O2  UNL     1      -6.465  81.724  60.245  0.00  0.00    +0.000 OA
ATOM     12  N4  UNL     1      -5.063  82.944  61.572  0.00  0.00    +0.000 N 
ATOM     13  C7  UNL     1      -5.136  84.109  60.681  0.00  0.00    +0.000 C 
ATOM     14  C8  UNL     1      -6.469  79.481  61.839  0.00  0.00    +0.000 C 
ENDROOT
TORSDOF 0
ENDMDL
