MODEL 1
REMARK VINA RESULT:      -5.2      0.000      0.000
REMARK  Name = .\Caffeine.pdb
REMARK  3 active torsions:
REMARK  status: ('A' for Active; 'I' for Inactive)
REMARK    1  A    between atoms: C1_1  and  N1_2
REMARK    2  A    between atoms: N3_9  and  C8_14
REMARK    3  A    between atoms: N4_12  and  C7_13
REMARK                            x       y       z     vdW  Elec       q    Type
REMARK                         _______ _______ _______ _____ _____    ______ ____
ROOT
ATOM      1  C1  UNL     1     -13.431  83.946  96.327  0.00  0.00    +0.000 C 
ATOM      2  N1  UNL     1     -12.195  83.394  96.874  0.00  0.00    +0.000 N 
ATOM      3  C2  UNL     1     -11.025  83.204  96.216  0.00  0.00    +0.000 C 
ATOM      4  N2  UNL     1     -10.059  82.652  96.995  0.00  0.00    +0.000 NA
ATOM      5  C3  UNL     1     -10.678  82.504  98.183  0.00  0.00    +0.000 C 
ATOM      6  C4  UNL     1     -11.957  82.942  98.116  0.00  0.00    +0.000 C 
ATOM      7  C5  UNL     1     -12.789  82.859  99.224  0.00  0.00    +0.000 C 
ATOM      8  O1  UNL     1     -13.987  83.249  99.156  0.00  0.00    +0.000 OA
ATOM      9  N3  UNL     1     -12.273  82.333 100.388  0.00  0.00    +0.000 N 
ATOM     10  C6  UNL     1     -10.971  81.862 100.423  0.00  0.00    +0.000 C 
ATOM     11  O2  UNL     1     -10.528  81.319 101.474  0.00  0.00    +0.000 OA
ATOM     12  N4  UNL     1     -10.151  81.972  99.319  0.00  0.00    +0.000 N 
ATOM     13  C7  UNL     1      -8.776  81.456  99.339  0.00  0.00    +0.000 C 
ATOM     14  C8  UNL     1     -13.136  82.192 101.573  0.00  0.00    +0.000 C 
ENDROOT
TORSDOF 0
ENDMDL
MODEL 2
REMARK VINA RESULT:      -5.1      1.508      2.993
REMARK  Name = .\Caffeine.pdb
REMARK  3 active torsions:
REMARK  status: ('A' for Active; 'I' for Inactive)
REMARK    1  A    between atoms: C1_1  and  N1_2
REMARK    2  A    between atoms: N3_9  and  C8_14
REMARK    3  A    between atoms: N4_12  and  C7_13
REMARK                            x       y       z     vdW  Elec       q    Type
REMARK                         _______ _______ _______ _____ _____    ______ ____
ROOT
ATOM      1  C1  UNL     1     -12.213  83.909  95.701  0.00  0.00    +0.000 C 
ATOM      2  N1  UNL     1     -12.646  83.568  97.053  0.00  0.00    +0.000 N 
ATOM      3  C2  UNL     1     -13.854  83.826  97.612  0.00  0.00    +0.000 C 
ATOM      4  N2  UNL     1     -13.947  83.400  98.898  0.00  0.00    +0.000 NA
ATOM      5  C3  UNL     1     -12.735  82.856  99.125  0.00  0.00    +0.000 C 
ATOM      6  C4  UNL     1     -11.951  82.957  98.026  0.00  0.00    +0.000 C 
ATOM      7  C5  UNL     1     -10.646  82.482  98.045  0.00  0.00    +0.000 C 
ATOM      8  O1  UNL     1      -9.909  82.594  97.028  0.00  0.00    +0.000 OA
ATOM      9  N3  UNL     1     -10.183  81.899  99.204  0.00  0.00    +0.000 N 
ATOM     10  C6  UNL     1     -10.994  81.835 100.325  0.00  0.00    +0.000 C 
ATOM     11  O2  UNL     1     -10.538  81.360 101.403  0.00  0.00    +0.000 OA
ATOM     12  N4  UNL     1     -12.295  82.292 100.281  0.00  0.00    +0.000 N 
ATOM     13  C7  UNL     1     -13.155  82.250 101.471  0.00  0.00    +0.000 C 
ATOM     14  C8  UNL     1      -8.793  81.418  99.276  0.00  0.00    +0.000 C 
ENDROOT
TORSDOF 0
ENDMDL
MODEL 3
REMARK VINA RESULT:      -5.0      1.878      3.813
REMARK  Name = .\Caffeine.pdb
REMARK  3 active torsions:
REMARK  status: ('A' for Active; 'I' for Inactive)
REMARK    1  A    between atoms: C1_1  and  N1_2
REMARK    2  A    between atoms: N3_9  and  C8_14
REMARK    3  A    between atoms: N4_12  and  C7_13
REMARK                            x       y       z     vdW  Elec       q    Type
REMARK                         _______ _______ _______ _____ _____    ______ ____
ROOT
ATOM      1  C1  UNL     1     -13.030  83.928 102.636  0.00  0.00    +0.000 C 
ATOM      2  N1  UNL     1     -11.955  83.199 101.970  0.00  0.00    +0.000 N 
ATOM      3  C2  UNL     1     -11.017  82.415 102.556  0.00  0.00    +0.000 C 
ATOM      4  N2  UNL     1     -10.135  81.885 101.668  0.00  0.00    +0.000 NA
ATOM      5  C3  UNL     1     -10.567  82.373 100.488  0.00  0.00    +0.000 C 
ATOM      6  C4  UNL     1     -11.652  83.161 100.662  0.00  0.00    +0.000 C 
ATOM      7  C5  UNL     1     -12.247  83.791  99.577  0.00  0.00    +0.000 C 
ATOM      8  O1  UNL     1     -13.247  84.543  99.742  0.00  0.00    +0.000 OA
ATOM      9  N3  UNL     1     -11.711  83.579  98.327  0.00  0.00    +0.000 N 
ATOM     10  C6  UNL     1     -10.581  82.791  98.177  0.00  0.00    +0.000 C 
ATOM     11  O2  UNL     1     -10.056  82.658  97.036  0.00  0.00    +0.000 OA
ATOM     12  N4  UNL     1     -10.015  82.156  99.264  0.00  0.00    +0.000 N 
ATOM     13  C7  UNL     1      -8.804  81.338  99.119  0.00  0.00    +0.000 C 
ATOM     14  C8  UNL     1     -12.289  84.260  97.157  0.00  0.00    +0.000 C 
ENDROOT
TORSDOF 0
ENDMDL
MODEL 4
REMARK VINA RESULT:      -5.0      1.719      3.688
REMARK  Name = .\Caffeine.pdb
REMARK  3 active torsions:
REMARK  status: ('A' for Active; 'I' for Inactive)
REMARK    1  A    between atoms: C1_1  and  N1_2
REMARK    2  A    between atoms: N3_9  and  C8_14
REMARK    3  A    between atoms: N4_12  and  C7_13
REMARK                            x       y       z     vdW  Elec       q    Type
REMARK                         _______ _______ _______ _____ _____    ______ ____
ROOT
ATOM      1  C1  UNL     1      -9.954  82.876 101.896  0.00  0.00    +0.000 C 
ATOM      2  N1  UNL     1     -10.062  82.694 100.452  0.00  0.00    +0.000 N 
ATOM      3  C2  UNL     1      -9.140  82.138  99.628  0.00  0.00    +0.000 C 
ATOM      4  N2  UNL     1      -9.525  82.128  98.326  0.00  0.00    +0.000 NA
ATOM      5  C3  UNL     1     -10.742  82.706  98.368  0.00  0.00    +0.000 C 
ATOM      6  C4  UNL     1     -11.068  83.049  99.636  0.00  0.00    +0.000 C 
ATOM      7  C5  UNL     1     -12.272  83.684  99.907  0.00  0.00    +0.000 C 
ATOM      8  O1  UNL     1     -12.567  84.023 101.086  0.00  0.00    +0.000 OA
ATOM      9  N3  UNL     1     -13.125  83.939  98.856  0.00  0.00    +0.000 N 
ATOM     10  C6  UNL     1     -12.756  83.605  97.563  0.00  0.00    +0.000 C 
ATOM     11  O2  UNL     1     -13.514  83.904  96.597  0.00  0.00    +0.000 OA
ATOM     12  N4  UNL     1     -11.565  82.956  97.314  0.00  0.00    +0.000 N 
ATOM     13  C7  UNL     1     -11.155  82.619  95.945  0.00  0.00    +0.000 C 
ATOM     14  C8  UNL     1     -14.394  84.645  99.097  0.00  0.00    +0.000 C 
ENDROOT
TORSDOF 0
ENDMDL
MODEL 5
REMARK VINA RESULT:      -4.8      1.775      4.556
REMARK  Name = .\Caffeine.pdb
REMARK  3 active torsions:
REMARK  status: ('A' for Active; 'I' for Inactive)
REMARK    1  A    between atoms: C1_1  and  N1_2
REMARK    2  A    between atoms: N3_9  and  C8_14
REMARK    3  A    between atoms: N4_12  and  C7_13
REMARK                            x       y       z     vdW  Elec       q    Type
REMARK                         _______ _______ _______ _____ _____    ______ ____
ROOT
ATOM      1  C1  UNL     1      -8.890  81.987 100.004  0.00  0.00    +0.000 C 
ATOM      2  N1  UNL     1     -10.347  82.000 100.082  0.00  0.00    +0.000 N 
ATOM      3  C2  UNL     1     -11.110  81.711 101.165  0.00  0.00    +0.000 C 
ATOM      4  N2  UNL     1     -12.442  81.793 100.917  0.00  0.00    +0.000 NA
ATOM      5  C3  UNL     1     -12.485  82.152  99.618  0.00  0.00    +0.000 C 
ATOM      6  C4  UNL     1     -11.236  82.275  99.112  0.00  0.00    +0.000 C 
ATOM      7  C5  UNL     1     -11.045  82.614  97.780  0.00  0.00    +0.000 C 
ATOM      8  O1  UNL     1      -9.881  82.707  97.303  0.00  0.00    +0.000 OA
ATOM      9  N3  UNL     1     -12.158  82.832  96.998  0.00  0.00    +0.000 N 
ATOM     10  C6  UNL     1     -13.426  82.671  97.530  0.00  0.00    +0.000 C 
ATOM     11  O2  UNL     1     -14.440  82.808  96.789  0.00  0.00    +0.000 OA
ATOM     12  N4  UNL     1     -13.597  82.355  98.862  0.00  0.00    +0.000 N 
ATOM     13  C7  UNL     1     -14.937  82.159  99.431  0.00  0.00    +0.000 C 
ATOM     14  C8  UNL     1     -11.997  83.156  95.570  0.00  0.00    +0.000 C 
ENDROOT
TORSDOF 0
ENDMDL
MODEL 6
REMARK VINA RESULT:      -4.8      2.002      3.385
REMARK  Name = .\Caffeine.pdb
REMARK  3 active torsions:
REMARK  status: ('A' for Active; 'I' for Inactive)
REMARK    1  A    between atoms: C1_1  and  N1_2
REMARK    2  A    between atoms: N3_9  and  C8_14
REMARK    3  A    between atoms: N4_12  and  C7_13
REMARK                            x       y       z     vdW  Elec       q    Type
REMARK                         _______ _______ _______ _____ _____    ______ ____
ROOT
ATOM      1  C1  UNL     1     -13.099  83.291  94.350  0.00  0.00    +0.000 C 
ATOM      2  N1  UNL     1     -13.492  83.411  95.750  0.00  0.00    +0.000 N 
ATOM      3  C2  UNL     1     -14.681  83.855  96.229  0.00  0.00    +0.000 C 
ATOM      4  N2  UNL     1     -14.738  83.868  97.585  0.00  0.00    +0.000 NA
ATOM      5  C3  UNL     1     -13.523  83.407  97.943  0.00  0.00    +0.000 C 
ATOM      6  C4  UNL     1     -12.772  83.135  96.850  0.00  0.00    +0.000 C 
ATOM      7  C5  UNL     1     -11.471  82.671  96.987  0.00  0.00    +0.000 C 
ATOM      8  O1  UNL     1     -10.764  82.437  95.968  0.00  0.00    +0.000 OA
ATOM      9  N3  UNL     1     -10.976  82.485  98.258  0.00  0.00    +0.000 N 
ATOM     10  C6  UNL     1     -11.753  82.799  99.361  0.00  0.00    +0.000 C 
ATOM     11  O2  UNL     1     -11.268  82.690 100.523  0.00  0.00    +0.000 OA
ATOM     12  N4  UNL     1     -13.052  83.239  99.207  0.00  0.00    +0.000 N 
ATOM     13  C7  UNL     1     -13.876  83.596 100.369  0.00  0.00    +0.000 C 
ATOM     14  C8  UNL     1      -9.588  82.032  98.445  0.00  0.00    +0.000 C 
ENDROOT
TORSDOF 0
ENDMDL
MODEL 7
REMARK VINA RESULT:      -4.8      1.503      3.554
REMARK  Name = .\Caffeine.pdb
REMARK  3 active torsions:
REMARK  status: ('A' for Active; 'I' for Inactive)
REMARK    1  A    between atoms: C1_1  and  N1_2
REMARK    2  A    between atoms: N3_9  and  C8_14
REMARK    3  A    between atoms: N4_12  and  C7_13
REMARK                            x       y       z     vdW  Elec       q    Type
REMARK                         _______ _______ _______ _____ _____    ______ ____
ROOT
ATOM      1  C1  UNL     1      -8.565  81.336  99.342  0.00  0.00    +0.000 C 
ATOM      2  N1  UNL     1      -9.761  82.081  98.959  0.00  0.00    +0.000 N 
ATOM      3  C2  UNL     1     -10.147  82.411  97.702  0.00  0.00    +0.000 C 
ATOM      4  N2  UNL     1     -11.302  83.126  97.670  0.00  0.00    +0.000 NA
ATOM      5  C3  UNL     1     -11.629  83.229  98.974  0.00  0.00    +0.000 C 
ATOM      6  C4  UNL     1     -10.709  82.608  99.749  0.00  0.00    +0.000 C 
ATOM      7  C5  UNL     1     -10.835  82.613 101.132  0.00  0.00    +0.000 C 
ATOM      8  O1  UNL     1      -9.967  82.053 101.856  0.00  0.00    +0.000 OA
ATOM      9  N3  UNL     1     -11.923  83.252 101.685  0.00  0.00    +0.000 N 
ATOM     10  C6  UNL     1     -12.835  83.905 100.872  0.00  0.00    +0.000 C 
ATOM     11  O2  UNL     1     -13.792  84.546 101.391  0.00  0.00    +0.000 OA
ATOM     12  N4  UNL     1     -12.706  83.873  99.498  0.00  0.00    +0.000 N 
ATOM     13  C7  UNL     1     -13.653  84.582  98.629  0.00  0.00    +0.000 C 
ATOM     14  C8  UNL     1     -12.071  83.312 103.148  0.00  0.00    +0.000 C 
ENDROOT
TORSDOF 0
ENDMDL
MODEL 8
REMARK VINA RESULT:      -4.8      2.003      3.759
REMARK  Name = .\Caffeine.pdb
REMARK  3 active torsions:
REMARK  status: ('A' for Active; 'I' for Inactive)
REMARK    1  A    between atoms: C1_1  and  N1_2
REMARK    2  A    between atoms: N3_9  and  C8_14
REMARK    3  A    between atoms: N4_12  and  C7_13
REMARK                            x       y       z     vdW  Elec       q    Type
REMARK                         _______ _______ _______ _____ _____    ______ ____
ROOT
ATOM      1  C1  UNL     1     -15.462  82.884  99.752  0.00  0.00    +0.000 C 
ATOM      2  N1  UNL     1     -14.026  82.649  99.647  0.00  0.00    +0.000 N 
ATOM      3  C2  UNL     1     -13.173  82.343 100.657  0.00  0.00    +0.000 C 
ATOM      4  N2  UNL     1     -11.887  82.202 100.244  0.00  0.00    +0.000 NA
ATOM      5  C3  UNL     1     -11.969  82.431  98.918  0.00  0.00    +0.000 C 
ATOM      6  C4  UNL     1     -13.245  82.702  98.556  0.00  0.00    +0.000 C 
ATOM      7  C5  UNL     1     -13.555  82.995  97.234  0.00  0.00    +0.000 C 
ATOM      8  O1  UNL     1     -14.740  83.268  96.900  0.00  0.00    +0.000 OA
ATOM      9  N3  UNL     1     -12.535  82.988  96.310  0.00  0.00    +0.000 N 
ATOM     10  C6  UNL     1     -11.232  82.738  96.710  0.00  0.00    +0.000 C 
ATOM     11  O2  UNL     1     -10.293  82.802  95.867  0.00  0.00    +0.000 OA
ATOM     12  N4  UNL     1     -10.945  82.428  98.023  0.00  0.00    +0.000 N 
ATOM     13  C7  UNL     1      -9.565  82.184  98.462  0.00  0.00    +0.000 C 
ATOM     14  C8  UNL     1     -12.817  83.332  94.906  0.00  0.00    +0.000 C 
ENDROOT
TORSDOF 0
ENDMDL
MODEL 9
REMARK VINA RESULT:      -4.8      1.630      4.165
REMARK  Name = .\Caffeine.pdb
REMARK  3 active torsions:
REMARK  status: ('A' for Active; 'I' for Inactive)
REMARK    1  A    between atoms: C1_1  and  N1_2
REMARK    2  A    between atoms: N3_9  and  C8_14
REMARK    3  A    between atoms: N4_12  and  C7_13
REMARK                            x       y       z     vdW  Elec       q    Type
REMARK                         _______ _______ _______ _____ _____    ______ ____
ROOT
ATOM      1  C1  UNL     1     -13.051  82.306 102.664  0.00  0.00    +0.000 C 
ATOM      2  N1  UNL     1     -13.105  82.787 101.287  0.00  0.00    +0.000 N 
ATOM      3  C2  UNL     1     -14.129  83.448 100.693  0.00  0.00    +0.000 C 
ATOM      4  N2  UNL     1     -13.887  83.747  99.391  0.00  0.00    +0.000 NA
ATOM      5  C3  UNL     1     -12.653  83.242  99.190  0.00  0.00    +0.000 C 
ATOM      6  C4  UNL     1     -12.182  82.664 100.319  0.00  0.00    +0.000 C 
ATOM      7  C5  UNL     1     -10.934  82.055 100.331  0.00  0.00    +0.000 C 
ATOM      8  O1  UNL     1     -10.503  81.497 101.377  0.00  0.00    +0.000 OA
ATOM      9  N3  UNL     1     -10.192  82.069  99.171  0.00  0.00    +0.000 N 
ATOM     10  C6  UNL     1     -10.709  82.641  98.020  0.00  0.00    +0.000 C 
ATOM     11  O2  UNL     1     -10.050  82.589  96.943  0.00  0.00    +0.000 OA
ATOM     12  N4  UNL     1     -11.942  83.260  98.031  0.00  0.00    +0.000 N 
ATOM     13  C7  UNL     1     -12.508  83.848  96.811  0.00  0.00    +0.000 C 
ATOM     14  C8  UNL     1      -8.881  81.400  99.132  0.00  0.00    +0.000 C 
ENDROOT
TORSDOF 0
ENDMDL
