MODEL 1
REMARK VINA RESULT:      -5.1      0.000      0.000
REMARK  Name = .\Caffeine.pdb
REMARK  3 active torsions:
REMARK  status: ('A' for Active; 'I' for Inactive)
REMARK    1  A    between atoms: C1_1  and  N1_2
REMARK    2  A    between atoms: N3_9  and  C8_14
REMARK    3  A    between atoms: N4_12  and  C7_13
REMARK                            x       y       z     vdW  Elec       q    Type
REMARK                         _______ _______ _______ _____ _____    ______ ____
ROOT
ATOM      1  C1  UNL     1     -20.065  88.073 129.699  0.00  0.00    +0.000 C 
ATOM      2  N1  UNL     1     -19.790  87.201 128.562  0.00  0.00    +0.000 N 
ATOM      3  C2  UNL     1     -19.505  87.581 127.292  0.00  0.00    +0.000 C 
ATOM      4  N2  UNL     1     -19.316  86.532 126.451  0.00  0.00    +0.000 NA
ATOM      5  C3  UNL     1     -19.492  85.465 127.256  0.00  0.00    +0.000 C 
ATOM      6  C4  UNL     1     -19.780  85.858 128.518  0.00  0.00    +0.000 C 
ATOM      7  C5  UNL     1     -20.026  84.919 129.510  0.00  0.00    +0.000 C 
ATOM      8  O1  UNL     1     -20.315  85.285 130.682  0.00  0.00    +0.000 OA
ATOM      9  N3  UNL     1     -19.957  83.585 129.175  0.00  0.00    +0.000 N 
ATOM     10  C6  UNL     1     -19.691  83.207 127.869  0.00  0.00    +0.000 C 
ATOM     11  O2  UNL     1     -19.696  81.983 127.556  0.00  0.00    +0.000 OA
ATOM     12  N4  UNL     1     -19.427  84.154 126.901  0.00  0.00    +0.000 N 
ATOM     13  C7  UNL     1     -19.167  83.764 125.509  0.00  0.00    +0.000 C 
ATOM     14  C8  UNL     1     -20.250  82.559 130.190  0.00  0.00    +0.000 C 
ENDROOT
TORSDOF 0
ENDMDL
MODEL 2
REMARK VINA RESULT:      -4.9      2.080      3.518
REMARK  Name = .\Caffeine.pdb
REMARK  3 active torsions:
REMARK  status: ('A' for Active; 'I' for Inactive)
REMARK    1  A    between atoms: C1_1  and  N1_2
REMARK    2  A    between atoms: N3_9  and  C8_14
REMARK    3  A    between atoms: N4_12  and  C7_13
REMARK                            x       y       z     vdW  Elec       q    Type
REMARK                         _______ _______ _______ _____ _____    ______ ____
ROOT
ATOM      1  C1  UNL     1     -19.343  86.394 126.818  0.00  0.00    +0.000 C 
ATOM      2  N1  UNL     1     -19.644  85.405 127.847  0.00  0.00    +0.000 N 
ATOM      3  C2  UNL     1     -19.597  85.584 129.190  0.00  0.00    +0.000 C 
ATOM      4  N2  UNL     1     -19.916  84.465 129.890  0.00  0.00    +0.000 NA
ATOM      5  C3  UNL     1     -20.170  83.565 128.918  0.00  0.00    +0.000 C 
ATOM      6  C4  UNL     1     -20.006  84.120 127.695  0.00  0.00    +0.000 C 
ATOM      7  C5  UNL     1     -20.192  83.363 126.546  0.00  0.00    +0.000 C 
ATOM      8  O1  UNL     1     -20.019  83.874 125.406  0.00  0.00    +0.000 OA
ATOM      9  N3  UNL     1     -20.558  82.043 126.689  0.00  0.00    +0.000 N 
ATOM     10  C6  UNL     1     -20.690  81.489 127.952  0.00  0.00    +0.000 C 
ATOM     11  O2  UNL     1     -20.960  80.260 128.074  0.00  0.00    +0.000 OA
ATOM     12  N4  UNL     1     -20.522  82.262 129.083  0.00  0.00    +0.000 N 
ATOM     13  C7  UNL     1     -20.637  81.679 130.426  0.00  0.00    +0.000 C 
ATOM     14  C8  UNL     1     -20.727  81.196 125.496  0.00  0.00    +0.000 C 
ENDROOT
TORSDOF 0
ENDMDL
MODEL 3
REMARK VINA RESULT:      -4.8      3.049      4.939
REMARK  Name = .\Caffeine.pdb
REMARK  3 active torsions:
REMARK  status: ('A' for Active; 'I' for Inactive)
REMARK    1  A    between atoms: C1_1  and  N1_2
REMARK    2  A    between atoms: N3_9  and  C8_14
REMARK    3  A    between atoms: N4_12  and  C7_13
REMARK                            x       y       z     vdW  Elec       q    Type
REMARK                         _______ _______ _______ _____ _____    ______ ____
ROOT
ATOM      1  C1  UNL     1     -19.632  84.761 126.912  0.00  0.00    +0.000 C 
ATOM      2  N1  UNL     1     -20.052  83.508 127.531  0.00  0.00    +0.000 N 
ATOM      3  C2  UNL     1     -19.921  83.158 128.834  0.00  0.00    +0.000 C 
ATOM      4  N2  UNL     1     -20.392  81.912 129.102  0.00  0.00    +0.000 NA
ATOM      5  C3  UNL     1     -20.832  81.492 127.899  0.00  0.00    +0.000 C 
ATOM      6  C4  UNL     1     -20.628  82.440 126.955  0.00  0.00    +0.000 C 
ATOM      7  C5  UNL     1     -20.984  82.207 125.633  0.00  0.00    +0.000 C 
ATOM      8  O1  UNL     1     -20.775  83.083 124.750  0.00  0.00    +0.000 OA
ATOM      9  N3  UNL     1     -21.559  80.996 125.318  0.00  0.00    +0.000 N 
ATOM     10  C6  UNL     1     -21.729  80.030 126.296  0.00  0.00    +0.000 C 
ATOM     11  O2  UNL     1     -22.194  78.897 125.984  0.00  0.00    +0.000 OA
ATOM     12  N4  UNL     1     -21.389  80.286 127.608  0.00  0.00    +0.000 N 
ATOM     13  C7  UNL     1     -21.545  79.260 128.647  0.00  0.00    +0.000 C 
ATOM     14  C8  UNL     1     -21.914  80.696 123.921  0.00  0.00    +0.000 C 
ENDROOT
TORSDOF 0
ENDMDL
MODEL 4
REMARK VINA RESULT:      -4.8      1.606      3.620
REMARK  Name = .\Caffeine.pdb
REMARK  3 active torsions:
REMARK  status: ('A' for Active; 'I' for Inactive)
REMARK    1  A    between atoms: C1_1  and  N1_2
REMARK    2  A    between atoms: N3_9  and  C8_14
REMARK    3  A    between atoms: N4_12  and  C7_13
REMARK                            x       y       z     vdW  Elec       q    Type
REMARK                         _______ _______ _______ _____ _____    ______ ____
ROOT
ATOM      1  C1  UNL     1     -21.002  82.900 131.317  0.00  0.00    +0.000 C 
ATOM      2  N1  UNL     1     -20.698  82.879 129.889  0.00  0.00    +0.000 N 
ATOM      3  C2  UNL     1     -20.714  81.801 129.067  0.00  0.00    +0.000 C 
ATOM      4  N2  UNL     1     -20.364  82.099 127.790  0.00  0.00    +0.000 NA
ATOM      5  C3  UNL     1     -20.128  83.425 127.844  0.00  0.00    +0.000 C 
ATOM      6  C4  UNL     1     -20.322  83.897 129.097  0.00  0.00    +0.000 C 
ATOM      7  C5  UNL     1     -20.109  85.238 129.386  0.00  0.00    +0.000 C 
ATOM      8  O1  UNL     1     -20.271  85.674 130.559  0.00  0.00    +0.000 OA
ATOM      9  N3  UNL     1     -19.710  86.069 128.363  0.00  0.00    +0.000 N 
ATOM     10  C6  UNL     1     -19.488  85.557 127.096  0.00  0.00    +0.000 C 
ATOM     11  O2  UNL     1     -19.056  86.313 126.180  0.00  0.00    +0.000 OA
ATOM     12  N4  UNL     1     -19.725  84.226 126.821  0.00  0.00    +0.000 N 
ATOM     13  C7  UNL     1     -19.470  83.669 125.486  0.00  0.00    +0.000 C 
ATOM     14  C8  UNL     1     -19.436  87.489 128.638  0.00  0.00    +0.000 C 
ENDROOT
TORSDOF 0
ENDMDL
MODEL 5
REMARK VINA RESULT:      -4.8      1.182      3.614
REMARK  Name = .\Caffeine.pdb
REMARK  3 active torsions:
REMARK  status: ('A' for Active; 'I' for Inactive)
REMARK    1  A    between atoms: C1_1  and  N1_2
REMARK    2  A    between atoms: N3_9  and  C8_14
REMARK    3  A    between atoms: N4_12  and  C7_13
REMARK                            x       y       z     vdW  Elec       q    Type
REMARK                         _______ _______ _______ _____ _____    ______ ____
ROOT
ATOM      1  C1  UNL     1     -19.174  81.532 126.211  0.00  0.00    +0.000 C 
ATOM      2  N1  UNL     1     -19.273  82.974 126.413  0.00  0.00    +0.000 N 
ATOM      3  C2  UNL     1     -19.063  83.944 125.488  0.00  0.00    +0.000 C 
ATOM      4  N2  UNL     1     -19.214  85.198 125.987  0.00  0.00    +0.000 NA
ATOM      5  C3  UNL     1     -19.533  84.972 127.278  0.00  0.00    +0.000 C 
ATOM      6  C4  UNL     1     -19.566  83.645 127.539  0.00  0.00    +0.000 C 
ATOM      7  C5  UNL     1     -19.850  83.186 128.818  0.00  0.00    +0.000 C 
ATOM      8  O1  UNL     1     -19.861  81.949 129.067  0.00  0.00    +0.000 OA
ATOM      9  N3  UNL     1     -20.107  84.115 129.801  0.00  0.00    +0.000 N 
ATOM     10  C6  UNL     1     -20.037  85.469 129.516  0.00  0.00    +0.000 C 
ATOM     11  O2  UNL     1     -20.207  86.314 130.440  0.00  0.00    +0.000 OA
ATOM     12  N4  UNL     1     -19.774  85.907 128.235  0.00  0.00    +0.000 N 
ATOM     13  C7  UNL     1     -19.675  87.340 127.928  0.00  0.00    +0.000 C 
ATOM     14  C8  UNL     1     -20.374  83.669 131.179  0.00  0.00    +0.000 C 
ENDROOT
TORSDOF 0
ENDMDL
MODEL 6
REMARK VINA RESULT:      -4.8      1.854      3.879
REMARK  Name = .\Caffeine.pdb
REMARK  3 active torsions:
REMARK  status: ('A' for Active; 'I' for Inactive)
REMARK    1  A    between atoms: C1_1  and  N1_2
REMARK    2  A    between atoms: N3_9  and  C8_14
REMARK    3  A    between atoms: N4_12  and  C7_13
REMARK                            x       y       z     vdW  Elec       q    Type
REMARK                         _______ _______ _______ _____ _____    ______ ____
ROOT
ATOM      1  C1  UNL     1     -21.618  80.646 126.900  0.00  0.00    +0.000 C 
ATOM      2  N1  UNL     1     -20.997  81.925 126.570  0.00  0.00    +0.000 N 
ATOM      3  C2  UNL     1     -20.562  82.330 125.351  0.00  0.00    +0.000 C 
ATOM      4  N2  UNL     1     -20.010  83.571 125.367  0.00  0.00    +0.000 NA
ATOM      5  C3  UNL     1     -20.121  83.933 126.661  0.00  0.00    +0.000 C 
ATOM      6  C4  UNL     1     -20.707  82.951 127.386  0.00  0.00    +0.000 C 
ATOM      7  C5  UNL     1     -20.897  83.102 128.753  0.00  0.00    +0.000 C 
ATOM      8  O1  UNL     1     -21.424  82.179 129.432  0.00  0.00    +0.000 OA
ATOM      9  N3  UNL     1     -20.485  84.277 129.341  0.00  0.00    +0.000 N 
ATOM     10  C6  UNL     1     -19.860  85.255 128.584  0.00  0.00    +0.000 C 
ATOM     11  O2  UNL     1     -19.425  86.300 129.145  0.00  0.00    +0.000 OA
ATOM     12  N4  UNL     1     -19.699  85.097 127.223  0.00  0.00    +0.000 N 
ATOM     13  C7  UNL     1     -19.017  86.117 126.416  0.00  0.00    +0.000 C 
ATOM     14  C8  UNL     1     -20.634  84.460 130.795  0.00  0.00    +0.000 C 
ENDROOT
TORSDOF 0
ENDMDL
MODEL 7
REMARK VINA RESULT:      -4.8      1.514      3.037
REMARK  Name = .\Caffeine.pdb
REMARK  3 active torsions:
REMARK  status: ('A' for Active; 'I' for Inactive)
REMARK    1  A    between atoms: C1_1  and  N1_2
REMARK    2  A    between atoms: N3_9  and  C8_14
REMARK    3  A    between atoms: N4_12  and  C7_13
REMARK                            x       y       z     vdW  Elec       q    Type
REMARK                         _______ _______ _______ _____ _____    ______ ____
ROOT
ATOM      1  C1  UNL     1     -19.720  87.981 128.886  0.00  0.00    +0.000 C 
ATOM      2  N1  UNL     1     -19.943  86.605 129.317  0.00  0.00    +0.000 N 
ATOM      3  C2  UNL     1     -20.261  86.181 130.565  0.00  0.00    +0.000 C 
ATOM      4  N2  UNL     1     -20.385  84.832 130.656  0.00  0.00    +0.000 NA
ATOM      5  C3  UNL     1     -20.132  84.422 129.397  0.00  0.00    +0.000 C 
ATOM      6  C4  UNL     1     -19.864  85.476 128.593  0.00  0.00    +0.000 C 
ATOM      7  C5  UNL     1     -19.549  85.280 127.255  0.00  0.00    +0.000 C 
ATOM      8  O1  UNL     1     -19.278  86.262 126.510  0.00  0.00    +0.000 OA
ATOM      9  N3  UNL     1     -19.531  83.991 126.772  0.00  0.00    +0.000 N 
ATOM     10  C6  UNL     1     -19.779  82.925 127.622  0.00  0.00    +0.000 C 
ATOM     11  O2  UNL     1     -19.694  81.742 127.187  0.00  0.00    +0.000 OA
ATOM     12  N4  UNL     1     -20.112  83.139 128.944  0.00  0.00    +0.000 N 
ATOM     13  C7  UNL     1     -20.354  82.016 129.858  0.00  0.00    +0.000 C 
ATOM     14  C8  UNL     1     -19.163  83.739 125.369  0.00  0.00    +0.000 C 
ENDROOT
TORSDOF 0
ENDMDL
MODEL 8
REMARK VINA RESULT:      -4.8      1.651      4.074
REMARK  Name = .\Caffeine.pdb
REMARK  3 active torsions:
REMARK  status: ('A' for Active; 'I' for Inactive)
REMARK    1  A    between atoms: C1_1  and  N1_2
REMARK    2  A    between atoms: N3_9  and  C8_14
REMARK    3  A    between atoms: N4_12  and  C7_13
REMARK                            x       y       z     vdW  Elec       q    Type
REMARK                         _______ _______ _______ _____ _____    ______ ____
ROOT
ATOM      1  C1  UNL     1     -20.461  81.763 130.623  0.00  0.00    +0.000 C 
ATOM      2  N1  UNL     1     -20.292  83.195 130.400  0.00  0.00    +0.000 N 
ATOM      3  C2  UNL     1     -20.422  84.185 131.317  0.00  0.00    +0.000 C 
ATOM      4  N2  UNL     1     -20.220  85.424 130.798  0.00  0.00    +0.000 NA
ATOM      5  C3  UNL     1     -19.952  85.167 129.502  0.00  0.00    +0.000 C 
ATOM      6  C4  UNL     1     -19.996  83.837 129.257  0.00  0.00    +0.000 C 
ATOM      7  C5  UNL     1     -19.776  83.348 127.976  0.00  0.00    +0.000 C 
ATOM      8  O1  UNL     1     -19.838  82.110 127.743  0.00  0.00    +0.000 OA
ATOM      9  N3  UNL     1     -19.499  84.252 126.974  0.00  0.00    +0.000 N 
ATOM     10  C6  UNL     1     -19.489  85.610 127.243  0.00  0.00    +0.000 C 
ATOM     11  O2  UNL     1     -19.302  86.435 126.304  0.00  0.00    +0.000 OA
ATOM     12  N4  UNL     1     -19.690  86.077 128.526  0.00  0.00    +0.000 N 
ATOM     13  C7  UNL     1     -19.704  87.516 128.818  0.00  0.00    +0.000 C 
ATOM     14  C8  UNL     1     -19.298  83.776 125.595  0.00  0.00    +0.000 C 
ENDROOT
TORSDOF 0
ENDMDL
MODEL 9
REMARK VINA RESULT:      -4.7      1.684      4.319
REMARK  Name = .\Caffeine.pdb
REMARK  3 active torsions:
REMARK  status: ('A' for Active; 'I' for Inactive)
REMARK    1  A    between atoms: C1_1  and  N1_2
REMARK    2  A    between atoms: N3_9  and  C8_14
REMARK    3  A    between atoms: N4_12  and  C7_13
REMARK                            x       y       z     vdW  Elec       q    Type
REMARK                         _______ _______ _______ _____ _____    ______ ____
ROOT
ATOM      1  C1  UNL     1     -18.956  83.905 125.175  0.00  0.00    +0.000 C 
ATOM      2  N1  UNL     1     -19.262  83.626 126.575  0.00  0.00    +0.000 N 
ATOM      3  C2  UNL     1     -19.389  82.408 127.156  0.00  0.00    +0.000 C 
ATOM      4  N2  UNL     1     -19.698  82.476 128.477  0.00  0.00    +0.000 NA
ATOM      5  C3  UNL     1     -19.757  83.804 128.704  0.00  0.00    +0.000 C 
ATOM      6  C4  UNL     1     -19.501  84.497 127.570  0.00  0.00    +0.000 C 
ATOM      7  C5  UNL     1     -19.535  85.885 127.569  0.00  0.00    +0.000 C 
ATOM      8  O1  UNL     1     -19.317  86.530 126.508  0.00  0.00    +0.000 OA
ATOM      9  N3  UNL     1     -19.823  86.529 128.752  0.00  0.00    +0.000 N 
ATOM     10  C6  UNL     1     -20.111  85.798 129.892  0.00  0.00    +0.000 C 
ATOM     11  O2  UNL     1     -20.441  86.396 130.955  0.00  0.00    +0.000 OA
ATOM     12  N4  UNL     1     -20.052  84.419 129.880  0.00  0.00    +0.000 N 
ATOM     13  C7  UNL     1     -20.379  83.634 131.077  0.00  0.00    +0.000 C 
ATOM     14  C8  UNL     1     -19.906  87.999 128.783  0.00  0.00    +0.000 C 
ENDROOT
TORSDOF 0
ENDMDL
