MODEL 1
REMARK VINA RESULT:      -4.4      0.000      0.000
REMARK  Name = .\Caffeine.pdb
REMARK  3 active torsions:
REMARK  status: ('A' for Active; 'I' for Inactive)
REMARK    1  A    between atoms: C1_1  and  N1_2
REMARK    2  A    between atoms: N3_9  and  C8_14
REMARK    3  A    between atoms: N4_12  and  C7_13
REMARK                            x       y       z     vdW  Elec       q    Type
REMARK                         _______ _______ _______ _____ _____    ______ ____
ROOT
ATOM      1  C1  UNL     1       5.790  52.177 -29.884  0.00  0.00    +0.000 C 
ATOM      2  N1  UNL     1       5.207  52.135 -31.222  0.00  0.00    +0.000 N 
ATOM      3  C2  UNL     1       4.687  51.053 -31.851  0.00  0.00    +0.000 C 
ATOM      4  N2  UNL     1       4.236  51.329 -33.102  0.00  0.00    +0.000 NA
ATOM      5  C3  UNL     1       4.495  52.646 -33.231  0.00  0.00    +0.000 C 
ATOM      6  C4  UNL     1       5.079  53.132 -32.112  0.00  0.00    +0.000 C 
ATOM      7  C5  UNL     1       5.456  54.467 -32.036  0.00  0.00    +0.000 C 
ATOM      8  O1  UNL     1       6.019  54.915 -31.000  0.00  0.00    +0.000 OA
ATOM      9  N3  UNL     1       5.209  55.275 -33.123  0.00  0.00    +0.000 N 
ATOM     10  C6  UNL     1       4.638  54.747 -34.269  0.00  0.00    +0.000 C 
ATOM     11  O2  UNL     1       4.476  55.481 -35.285  0.00  0.00    +0.000 OA
ATOM     12  N4  UNL     1       4.249  53.424 -34.319  0.00  0.00    +0.000 N 
ATOM     13  C7  UNL     1       3.664  52.850 -35.538  0.00  0.00    +0.000 C 
ATOM     14  C8  UNL     1       5.629  56.686 -33.097  0.00  0.00    +0.000 C 
ENDROOT
TORSDOF 0
ENDMDL
MODEL 2
REMARK VINA RESULT:      -4.3      1.226      3.519
REMARK  Name = .\Caffeine.pdb
REMARK  3 active torsions:
REMARK  status: ('A' for Active; 'I' for Inactive)
REMARK    1  A    between atoms: C1_1  and  N1_2
REMARK    2  A    between atoms: N3_9  and  C8_14
REMARK    3  A    between atoms: N4_12  and  C7_13
REMARK                            x       y       z     vdW  Elec       q    Type
REMARK                         _______ _______ _______ _____ _____    ______ ____
ROOT
ATOM      1  C1  UNL     1       3.541  53.827 -35.303  0.00  0.00    +0.000 C 
ATOM      2  N1  UNL     1       3.995  53.162 -34.085  0.00  0.00    +0.000 N 
ATOM      3  C2  UNL     1       3.739  51.884 -33.709  0.00  0.00    +0.000 C 
ATOM      4  N2  UNL     1       4.285  51.562 -32.509  0.00  0.00    +0.000 NA
ATOM      5  C3  UNL     1       4.905  52.703 -32.144  0.00  0.00    +0.000 C 
ATOM      6  C4  UNL     1       4.732  53.663 -33.081  0.00  0.00    +0.000 C 
ATOM      7  C5  UNL     1       5.267  54.932 -32.897  0.00  0.00    +0.000 C 
ATOM      8  O1  UNL     1       5.088  55.834 -33.760  0.00  0.00    +0.000 OA
ATOM      9  N3  UNL     1       5.983  55.175 -31.746  0.00  0.00    +0.000 N 
ATOM     10  C6  UNL     1       6.121  54.184 -30.788  0.00  0.00    +0.000 C 
ATOM     11  O2  UNL     1       6.721  54.437 -29.705  0.00  0.00    +0.000 OA
ATOM     12  N4  UNL     1       5.601  52.923 -30.997  0.00  0.00    +0.000 N 
ATOM     13  C7  UNL     1       5.721  51.873 -29.977  0.00  0.00    +0.000 C 
ATOM     14  C8  UNL     1       6.532  56.518 -31.496  0.00  0.00    +0.000 C 
ENDROOT
TORSDOF 0
ENDMDL
MODEL 3
REMARK VINA RESULT:      -4.3      1.567      3.006
REMARK  Name = .\Caffeine.pdb
REMARK  3 active torsions:
REMARK  status: ('A' for Active; 'I' for Inactive)
REMARK    1  A    between atoms: C1_1  and  N1_2
REMARK    2  A    between atoms: N3_9  and  C8_14
REMARK    3  A    between atoms: N4_12  and  C7_13
REMARK                            x       y       z     vdW  Elec       q    Type
REMARK                         _______ _______ _______ _____ _____    ______ ____
ROOT
ATOM      1  C1  UNL     1       4.920  50.982 -31.112  0.00  0.00    +0.000 C 
ATOM      2  N1  UNL     1       5.268  52.343 -31.508  0.00  0.00    +0.000 N 
ATOM      3  C2  UNL     1       5.961  53.253 -30.780  0.00  0.00    +0.000 C 
ATOM      4  N2  UNL     1       6.110  54.443 -31.415  0.00  0.00    +0.000 NA
ATOM      5  C3  UNL     1       5.476  54.240 -32.588  0.00  0.00    +0.000 C 
ATOM      6  C4  UNL     1       4.968  52.987 -32.648  0.00  0.00    +0.000 C 
ATOM      7  C5  UNL     1       4.251  52.570 -33.761  0.00  0.00    +0.000 C 
ATOM      8  O1  UNL     1       3.759  51.409 -33.808  0.00  0.00    +0.000 OA
ATOM      9  N3  UNL     1       4.084  53.460 -34.799  0.00  0.00    +0.000 N 
ATOM     10  C6  UNL     1       4.588  54.747 -34.701  0.00  0.00    +0.000 C 
ATOM     11  O2  UNL     1       4.372  55.577 -35.629  0.00  0.00    +0.000 OA
ATOM     12  N4  UNL     1       5.316  55.138 -33.597  0.00  0.00    +0.000 N 
ATOM     13  C7  UNL     1       5.834  56.506 -33.473  0.00  0.00    +0.000 C 
ATOM     14  C8  UNL     1       3.297  53.068 -35.979  0.00  0.00    +0.000 C 
ENDROOT
TORSDOF 0
ENDMDL
MODEL 4
REMARK VINA RESULT:      -4.3      2.093      4.932
REMARK  Name = .\Caffeine.pdb
REMARK  3 active torsions:
REMARK  status: ('A' for Active; 'I' for Inactive)
REMARK    1  A    between atoms: C1_1  and  N1_2
REMARK    2  A    between atoms: N3_9  and  C8_14
REMARK    3  A    between atoms: N4_12  and  C7_13
REMARK                            x       y       z     vdW  Elec       q    Type
REMARK                         _______ _______ _______ _____ _____    ______ ____
ROOT
ATOM      1  C1  UNL     1       3.531  54.357 -34.147  0.00  0.00    +0.000 C 
ATOM      2  N1  UNL     1       4.311  54.352 -32.913  0.00  0.00    +0.000 N 
ATOM      3  C2  UNL     1       4.796  55.430 -32.250  0.00  0.00    +0.000 C 
ATOM      4  N2  UNL     1       5.501  55.099 -31.138  0.00  0.00    +0.000 NA
ATOM      5  C3  UNL     1       5.435  53.752 -31.129  0.00  0.00    +0.000 C 
ATOM      6  C4  UNL     1       4.727  53.300 -32.190  0.00  0.00    +0.000 C 
ATOM      7  C5  UNL     1       4.555  51.937 -32.392  0.00  0.00    +0.000 C 
ATOM      8  O1  UNL     1       3.913  51.514 -33.392  0.00  0.00    +0.000 OA
ATOM      9  N3  UNL     1       5.112  51.068 -31.480  0.00  0.00    +0.000 N 
ATOM     10  C6  UNL     1       5.858  51.555 -30.419  0.00  0.00    +0.000 C 
ATOM     11  O2  UNL     1       6.421  50.749 -29.626  0.00  0.00    +0.000 OA
ATOM     12  N4  UNL     1       6.001  52.913 -30.221  0.00  0.00    +0.000 N 
ATOM     13  C7  UNL     1       6.809  53.438 -29.113  0.00  0.00    +0.000 C 
ATOM     14  C8  UNL     1       4.984  49.615 -31.681  0.00  0.00    +0.000 C 
ENDROOT
TORSDOF 0
ENDMDL
MODEL 5
REMARK VINA RESULT:      -4.3      1.716      4.522
REMARK  Name = .\Caffeine.pdb
REMARK  3 active torsions:
REMARK  status: ('A' for Active; 'I' for Inactive)
REMARK    1  A    between atoms: C1_1  and  N1_2
REMARK    2  A    between atoms: N3_9  and  C8_14
REMARK    3  A    between atoms: N4_12  and  C7_13
REMARK                            x       y       z     vdW  Elec       q    Type
REMARK                         _______ _______ _______ _____ _____    ______ ____
ROOT
ATOM      1  C1  UNL     1       3.271  53.195 -35.929  0.00  0.00    +0.000 C 
ATOM      2  N1  UNL     1       4.042  53.962 -34.956  0.00  0.00    +0.000 N 
ATOM      3  C2  UNL     1       4.482  55.238 -35.087  0.00  0.00    +0.000 C 
ATOM      4  N2  UNL     1       5.194  55.669 -34.013  0.00  0.00    +0.000 NA
ATOM      5  C3  UNL     1       5.179  54.599 -33.193  0.00  0.00    +0.000 C 
ATOM      6  C4  UNL     1       4.495  53.574 -33.752  0.00  0.00    +0.000 C 
ATOM      7  C5  UNL     1       4.376  52.361 -33.088  0.00  0.00    +0.000 C 
ATOM      8  O1  UNL     1       3.756  51.398 -33.619  0.00  0.00    +0.000 OA
ATOM      9  N3  UNL     1       4.960  52.238 -31.847  0.00  0.00    +0.000 N 
ATOM     10  C6  UNL     1       5.681  53.291 -31.308  0.00  0.00    +0.000 C 
ATOM     11  O2  UNL     1       6.270  53.146 -30.200  0.00  0.00    +0.000 OA
ATOM     12  N4  UNL     1       5.771  54.497 -31.972  0.00  0.00    +0.000 N 
ATOM     13  C7  UNL     1       6.552  55.612 -31.420  0.00  0.00    +0.000 C 
ATOM     14  C8  UNL     1       4.889  50.954 -31.129  0.00  0.00    +0.000 C 
ENDROOT
TORSDOF 0
ENDMDL
MODEL 6
REMARK VINA RESULT:      -4.1      1.735      4.011
REMARK  Name = .\Caffeine.pdb
REMARK  3 active torsions:
REMARK  status: ('A' for Active; 'I' for Inactive)
REMARK    1  A    between atoms: C1_1  and  N1_2
REMARK    2  A    between atoms: N3_9  and  C8_14
REMARK    3  A    between atoms: N4_12  and  C7_13
REMARK                            x       y       z     vdW  Elec       q    Type
REMARK                         _______ _______ _______ _____ _____    ______ ____
ROOT
ATOM      1  C1  UNL     1       4.123  55.266 -33.239  0.00  0.00    +0.000 C 
ATOM      2  N1  UNL     1       4.245  53.828 -33.023  0.00  0.00    +0.000 N 
ATOM      3  C2  UNL     1       3.685  52.840 -33.764  0.00  0.00    +0.000 C 
ATOM      4  N2  UNL     1       3.969  51.597 -33.298  0.00  0.00    +0.000 NA
ATOM      5  C3  UNL     1       4.743  51.848 -32.223  0.00  0.00    +0.000 C 
ATOM      6  C4  UNL     1       4.909  53.180 -32.051  0.00  0.00    +0.000 C 
ATOM      7  C5  UNL     1       5.653  53.666 -30.985  0.00  0.00    +0.000 C 
ATOM      8  O1  UNL     1       5.791  54.908 -30.813  0.00  0.00    +0.000 OA
ATOM      9  N3  UNL     1       6.223  52.757 -30.121  0.00  0.00    +0.000 N 
ATOM     10  C6  UNL     1       6.014  51.399 -30.300  0.00  0.00    +0.000 C 
ATOM     11  O2  UNL     1       6.483  50.576 -29.464  0.00  0.00    +0.000 OA
ATOM     12  N4  UNL     1       5.289  50.933 -31.377  0.00  0.00    +0.000 N 
ATOM     13  C7  UNL     1       5.042  49.497 -31.563  0.00  0.00    +0.000 C 
ATOM     14  C8  UNL     1       6.987  53.234 -28.956  0.00  0.00    +0.000 C 
ENDROOT
TORSDOF 0
ENDMDL
MODEL 7
REMARK VINA RESULT:      -4.0      1.881      3.135
REMARK  Name = .\Caffeine.pdb
REMARK  3 active torsions:
REMARK  status: ('A' for Active; 'I' for Inactive)
REMARK    1  A    between atoms: C1_1  and  N1_2
REMARK    2  A    between atoms: N3_9  and  C8_14
REMARK    3  A    between atoms: N4_12  and  C7_13
REMARK                            x       y       z     vdW  Elec       q    Type
REMARK                         _______ _______ _______ _____ _____    ______ ____
ROOT
ATOM      1  C1  UNL     1       4.926  49.873 -31.749  0.00  0.00    +0.000 C 
ATOM      2  N1  UNL     1       4.698  51.259 -32.147  0.00  0.00    +0.000 N 
ATOM      3  C2  UNL     1       3.886  51.700 -33.139  0.00  0.00    +0.000 C 
ATOM      4  N2  UNL     1       3.901  53.051 -33.279  0.00  0.00    +0.000 NA
ATOM      5  C3  UNL     1       4.763  53.444 -32.320  0.00  0.00    +0.000 C 
ATOM      6  C4  UNL     1       5.246  52.377 -31.642  0.00  0.00    +0.000 C 
ATOM      7  C5  UNL     1       6.173  52.550 -30.624  0.00  0.00    +0.000 C 
ATOM      8  O1  UNL     1       6.639  51.554 -30.005  0.00  0.00    +0.000 OA
ATOM      9  N3  UNL     1       6.574  53.832 -30.319  0.00  0.00    +0.000 N 
ATOM     10  C6  UNL     1       6.089  54.905 -31.048  0.00  0.00    +0.000 C 
ATOM     11  O2  UNL     1       6.513  56.071 -30.806  0.00  0.00    +0.000 OA
ATOM     12  N4  UNL     1       5.151  54.717 -32.042  0.00  0.00    +0.000 N 
ATOM     13  C7  UNL     1       4.649  55.846 -32.836  0.00  0.00    +0.000 C 
ATOM     14  C8  UNL     1       7.585  54.053 -29.272  0.00  0.00    +0.000 C 
ENDROOT
TORSDOF 0
ENDMDL
MODEL 8
REMARK VINA RESULT:      -3.7      2.433      2.954
REMARK  Name = .\Caffeine.pdb
REMARK  3 active torsions:
REMARK  status: ('A' for Active; 'I' for Inactive)
REMARK    1  A    between atoms: C1_1  and  N1_2
REMARK    2  A    between atoms: N3_9  and  C8_14
REMARK    3  A    between atoms: N4_12  and  C7_13
REMARK                            x       y       z     vdW  Elec       q    Type
REMARK                         _______ _______ _______ _____ _____    ______ ____
ROOT
ATOM      1  C1  UNL     1       6.155  49.499 -32.564  0.00  0.00    +0.000 C 
ATOM      2  N1  UNL     1       6.493  50.584 -33.481  0.00  0.00    +0.000 N 
ATOM      3  C2  UNL     1       7.553  50.638 -34.325  0.00  0.00    +0.000 C 
ATOM      4  N2  UNL     1       7.607  51.792 -35.039  0.00  0.00    +0.000 NA
ATOM      5  C3  UNL     1       6.523  52.466 -34.605  0.00  0.00    +0.000 C 
ATOM      6  C4  UNL     1       5.855  51.750 -33.671  0.00  0.00    +0.000 C 
ATOM      7  C5  UNL     1       4.716  52.267 -33.068  0.00  0.00    +0.000 C 
ATOM      8  O1  UNL     1       4.105  51.609 -32.182  0.00  0.00    +0.000 OA
ATOM      9  N3  UNL     1       4.285  53.516 -33.456  0.00  0.00    +0.000 N 
ATOM     10  C6  UNL     1       5.002  54.242 -34.392  0.00  0.00    +0.000 C 
ATOM     11  O2  UNL     1       4.637  55.414 -34.692  0.00  0.00    +0.000 OA
ATOM     12  N4  UNL     1       6.119  53.704 -34.997  0.00  0.00    +0.000 N 
ATOM     13  C7  UNL     1       6.900  54.474 -35.974  0.00  0.00    +0.000 C 
ATOM     14  C8  UNL     1       3.104  54.116 -32.812  0.00  0.00    +0.000 C 
ENDROOT
TORSDOF 0
ENDMDL
MODEL 9
REMARK VINA RESULT:      -3.6      2.250      3.789
REMARK  Name = .\Caffeine.pdb
REMARK  3 active torsions:
REMARK  status: ('A' for Active; 'I' for Inactive)
REMARK    1  A    between atoms: C1_1  and  N1_2
REMARK    2  A    between atoms: N3_9  and  C8_14
REMARK    3  A    between atoms: N4_12  and  C7_13
REMARK                            x       y       z     vdW  Elec       q    Type
REMARK                         _______ _______ _______ _____ _____    ______ ____
ROOT
ATOM      1  C1  UNL     1       5.143  49.346 -31.672  0.00  0.00    +0.000 C 
ATOM      2  N1  UNL     1       5.897  50.432 -31.054  0.00  0.00    +0.000 N 
ATOM      3  C2  UNL     1       6.927  50.316 -30.179  0.00  0.00    +0.000 C 
ATOM      4  N2  UNL     1       7.413  51.514 -29.765  0.00  0.00    +0.000 NA
ATOM      5  C3  UNL     1       6.639  52.398 -30.427  0.00  0.00    +0.000 C 
ATOM      6  C4  UNL     1       5.729  51.757 -31.197  0.00  0.00    +0.000 C 
ATOM      7  C5  UNL     1       4.809  52.477 -31.948  0.00  0.00    +0.000 C 
ATOM      8  O1  UNL     1       3.948  51.879 -32.649  0.00  0.00    +0.000 OA
ATOM      9  N3  UNL     1       4.860  53.852 -31.896  0.00  0.00    +0.000 N 
ATOM     10  C6  UNL     1       5.781  54.485 -31.077  0.00  0.00    +0.000 C 
ATOM     11  O2  UNL     1       5.775  55.745 -30.983  0.00  0.00    +0.000 OA
ATOM     12  N4  UNL     1       6.701  53.755 -30.354  0.00  0.00    +0.000 N 
ATOM     13  C7  UNL     1       7.666  54.415 -29.465  0.00  0.00    +0.000 C 
ATOM     14  C8  UNL     1       3.877  54.650 -32.648  0.00  0.00    +0.000 C 
ENDROOT
TORSDOF 0
ENDMDL
