MODEL 1
REMARK VINA RESULT:      -5.2      0.000      0.000
REMARK  Name = .\Caffeine.pdb
REMARK  3 active torsions:
REMARK  status: ('A' for Active; 'I' for Inactive)
REMARK    1  A    between atoms: C1_1  and  N1_2
REMARK    2  A    between atoms: N3_9  and  C8_14
REMARK    3  A    between atoms: N4_12  and  C7_13
REMARK                            x       y       z     vdW  Elec       q    Type
REMARK                         _______ _______ _______ _____ _____    ______ ____
ROOT
ATOM      1  C1  UNL     1       3.061  47.196   1.138  0.00  0.00    +0.000 C 
ATOM      2  N1  UNL     1       1.797  47.696   1.671  0.00  0.00    +0.000 N 
ATOM      3  C2  UNL     1       0.637  47.870   0.992  0.00  0.00    +0.000 C 
ATOM      4  N2  UNL     1      -0.362  48.372   1.763  0.00  0.00    +0.000 NA
ATOM      5  C3  UNL     1       0.226  48.505   2.969  0.00  0.00    +0.000 C 
ATOM      6  C4  UNL     1       1.518  48.105   2.919  0.00  0.00    +0.000 C 
ATOM      7  C5  UNL     1       2.323  48.182   4.048  0.00  0.00    +0.000 C 
ATOM      8  O1  UNL     1       3.533  47.829   3.997  0.00  0.00    +0.000 OA
ATOM      9  N3  UNL     1       1.766  48.660   5.213  0.00  0.00    +0.000 N 
ATOM     10  C6  UNL     1       0.450  49.091   5.231  0.00  0.00    +0.000 C 
ATOM     11  O2  UNL     1      -0.032  49.592   6.286  0.00  0.00    +0.000 OA
ATOM     12  N4  UNL     1      -0.342  48.989   4.106  0.00  0.00    +0.000 N 
ATOM     13  C7  UNL     1      -1.731  49.464   4.108  0.00  0.00    +0.000 C 
ATOM     14  C8  UNL     1       2.597  48.793   6.421  0.00  0.00    +0.000 C 
ENDROOT
TORSDOF 0
ENDMDL
MODEL 2
REMARK VINA RESULT:      -5.1      1.500      2.988
REMARK  Name = .\Caffeine.pdb
REMARK  3 active torsions:
REMARK  status: ('A' for Active; 'I' for Inactive)
REMARK    1  A    between atoms: C1_1  and  N1_2
REMARK    2  A    between atoms: N3_9  and  C8_14
REMARK    3  A    between atoms: N4_12  and  C7_13
REMARK                            x       y       z     vdW  Elec       q    Type
REMARK                         _______ _______ _______ _____ _____    ______ ____
ROOT
ATOM      1  C1  UNL     1       1.655  47.187   0.416  0.00  0.00    +0.000 C 
ATOM      2  N1  UNL     1       2.125  47.505   1.760  0.00  0.00    +0.000 N 
ATOM      3  C2  UNL     1       3.360  47.272   2.269  0.00  0.00    +0.000 C 
ATOM      4  N2  UNL     1       3.487  47.666   3.563  0.00  0.00    +0.000 NA
ATOM      5  C3  UNL     1       2.267  48.165   3.847  0.00  0.00    +0.000 C 
ATOM      6  C4  UNL     1       1.448  48.069   2.774  0.00  0.00    +0.000 C 
ATOM      7  C5  UNL     1       0.131  48.501   2.852  0.00  0.00    +0.000 C 
ATOM      8  O1  UNL     1      -0.639  48.392   1.859  0.00  0.00    +0.000 OA
ATOM      9  N3  UNL     1      -0.308  49.038   4.042  0.00  0.00    +0.000 N 
ATOM     10  C6  UNL     1       0.540  49.098   5.135  0.00  0.00    +0.000 C 
ATOM     11  O2  UNL     1       0.109  49.529   6.242  0.00  0.00    +0.000 OA
ATOM     12  N4  UNL     1       1.852  48.683   5.033  0.00  0.00    +0.000 N 
ATOM     13  C7  UNL     1       2.753  48.721   6.193  0.00  0.00    +0.000 C 
ATOM     14  C8  UNL     1      -1.709  49.471   4.177  0.00  0.00    +0.000 C 
ENDROOT
TORSDOF 0
ENDMDL
MODEL 3
REMARK VINA RESULT:      -5.0      1.696      3.703
REMARK  Name = .\Caffeine.pdb
REMARK  3 active torsions:
REMARK  status: ('A' for Active; 'I' for Inactive)
REMARK    1  A    between atoms: C1_1  and  N1_2
REMARK    2  A    between atoms: N3_9  and  C8_14
REMARK    3  A    between atoms: N4_12  and  C7_13
REMARK                            x       y       z     vdW  Elec       q    Type
REMARK                         _______ _______ _______ _____ _____    ______ ____
ROOT
ATOM      1  C1  UNL     1      -0.606  48.305   6.684  0.00  0.00    +0.000 C 
ATOM      2  N1  UNL     1      -0.496  48.403   5.232  0.00  0.00    +0.000 N 
ATOM      3  C2  UNL     1      -1.417  48.913   4.377  0.00  0.00    +0.000 C 
ATOM      4  N2  UNL     1      -1.031  48.847   3.076  0.00  0.00    +0.000 NA
ATOM      5  C3  UNL     1       0.185  48.270   3.152  0.00  0.00    +0.000 C 
ATOM      6  C4  UNL     1       0.509  47.999   4.438  0.00  0.00    +0.000 C 
ATOM      7  C5  UNL     1       1.712  47.378   4.746  0.00  0.00    +0.000 C 
ATOM      8  O1  UNL     1       2.004  47.106   5.942  0.00  0.00    +0.000 OA
ATOM      9  N3  UNL     1       2.564  47.060   3.711  0.00  0.00    +0.000 N 
ATOM     10  C6  UNL     1       2.197  47.320   2.401  0.00  0.00    +0.000 C 
ATOM     11  O2  UNL     1       2.955  46.964   1.455  0.00  0.00    +0.000 OA
ATOM     12  N4  UNL     1       1.007  47.958   2.114  0.00  0.00    +0.000 N 
ATOM     13  C7  UNL     1       0.599  48.217   0.728  0.00  0.00    +0.000 C 
ATOM     14  C8  UNL     1       3.831  46.366   3.994  0.00  0.00    +0.000 C 
ENDROOT
TORSDOF 0
ENDMDL
MODEL 4
REMARK VINA RESULT:      -4.9      1.361      1.361
REMARK  Name = .\Caffeine.pdb
REMARK  3 active torsions:
REMARK  status: ('A' for Active; 'I' for Inactive)
REMARK    1  A    between atoms: C1_1  and  N1_2
REMARK    2  A    between atoms: N3_9  and  C8_14
REMARK    3  A    between atoms: N4_12  and  C7_13
REMARK                            x       y       z     vdW  Elec       q    Type
REMARK                         _______ _______ _______ _____ _____    ______ ____
ROOT
ATOM      1  C1  UNL     1       2.556  47.037   0.998  0.00  0.00    +0.000 C 
ATOM      2  N1  UNL     1       1.408  47.500   1.771  0.00  0.00    +0.000 N 
ATOM      3  C2  UNL     1       0.322  48.164   1.302  0.00  0.00    +0.000 C 
ATOM      4  N2  UNL     1      -0.573  48.476   2.274  0.00  0.00    +0.000 NA
ATOM      5  C3  UNL     1       0.001  47.973   3.385  0.00  0.00    +0.000 C 
ATOM      6  C4  UNL     1       1.187  47.391   3.091  0.00  0.00    +0.000 C 
ATOM      7  C5  UNL     1       1.964  46.828   4.095  0.00  0.00    +0.000 C 
ATOM      8  O1  UNL     1       3.079  46.303   3.824  0.00  0.00    +0.000 OA
ATOM      9  N3  UNL     1       1.488  46.868   5.386  0.00  0.00    +0.000 N 
ATOM     10  C6  UNL     1       0.285  47.496   5.667  0.00  0.00    +0.000 C 
ATOM     11  O2  UNL     1      -0.111  47.589   6.863  0.00  0.00    +0.000 OA
ATOM     12  N4  UNL     1      -0.484  48.032   4.654  0.00  0.00    +0.000 N 
ATOM     13  C7  UNL     1      -1.748  48.720   4.944  0.00  0.00    +0.000 C 
ATOM     14  C8  UNL     1       2.300  46.317   6.484  0.00  0.00    +0.000 C 
ENDROOT
TORSDOF 0
ENDMDL
MODEL 5
REMARK VINA RESULT:      -4.9      1.598      3.651
REMARK  Name = .\Caffeine.pdb
REMARK  3 active torsions:
REMARK  status: ('A' for Active; 'I' for Inactive)
REMARK    1  A    between atoms: C1_1  and  N1_2
REMARK    2  A    between atoms: N3_9  and  C8_14
REMARK    3  A    between atoms: N4_12  and  C7_13
REMARK                            x       y       z     vdW  Elec       q    Type
REMARK                         _______ _______ _______ _____ _____    ______ ____
ROOT
ATOM      1  C1  UNL     1       3.607  48.481   6.705  0.00  0.00    +0.000 C 
ATOM      2  N1  UNL     1       2.268  48.820   6.235  0.00  0.00    +0.000 N 
ATOM      3  C2  UNL     1       1.264  49.371   6.961  0.00  0.00    +0.000 C 
ATOM      4  N2  UNL     1       0.124  49.551   6.245  0.00  0.00    +0.000 NA
ATOM      5  C3  UNL     1       0.459  49.086   5.025  0.00  0.00    +0.000 C 
ATOM      6  C4  UNL     1       1.738  48.645   5.014  0.00  0.00    +0.000 C 
ATOM      7  C5  UNL     1       2.285  48.098   3.860  0.00  0.00    +0.000 C 
ATOM      8  O1  UNL     1       3.471  47.667   3.855  0.00  0.00    +0.000 OA
ATOM      9  N3  UNL     1       1.496  48.032   2.734  0.00  0.00    +0.000 N 
ATOM     10  C6  UNL     1       0.180  48.462   2.778  0.00  0.00    +0.000 C 
ATOM     11  O2  UNL     1      -0.557  48.335   1.760  0.00  0.00    +0.000 OA
ATOM     12  N4  UNL     1      -0.341  49.022   3.927  0.00  0.00    +0.000 N 
ATOM     13  C7  UNL     1      -1.741  49.460   3.991  0.00  0.00    +0.000 C 
ATOM     14  C8  UNL     1       2.027  47.424   1.502  0.00  0.00    +0.000 C 
ENDROOT
TORSDOF 0
ENDMDL
MODEL 6
REMARK VINA RESULT:      -4.9      1.304      1.318
REMARK  Name = .\Caffeine.pdb
REMARK  3 active torsions:
REMARK  status: ('A' for Active; 'I' for Inactive)
REMARK    1  A    between atoms: C1_1  and  N1_2
REMARK    2  A    between atoms: N3_9  and  C8_14
REMARK    3  A    between atoms: N4_12  and  C7_13
REMARK                            x       y       z     vdW  Elec       q    Type
REMARK                         _______ _______ _______ _____ _____    ______ ____
ROOT
ATOM      1  C1  UNL     1       2.297  47.624  -0.061  0.00  0.00    +0.000 C 
ATOM      2  N1  UNL     1       1.392  47.907   1.048  0.00  0.00    +0.000 N 
ATOM      3  C2  UNL     1       0.036  47.889   1.021  0.00  0.00    +0.000 C 
ATOM      4  N2  UNL     1      -0.526  48.217   2.213  0.00  0.00    +0.000 NA
ATOM      5  C3  UNL     1       0.546  48.442   2.999  0.00  0.00    +0.000 C 
ATOM      6  C4  UNL     1       1.695  48.261   2.308  0.00  0.00    +0.000 C 
ATOM      7  C5  UNL     1       2.924  48.466   2.920  0.00  0.00    +0.000 C 
ATOM      8  O1  UNL     1       3.996  48.319   2.270  0.00  0.00    +0.000 OA
ATOM      9  N3  UNL     1       2.938  48.843   4.244  0.00  0.00    +0.000 N 
ATOM     10  C6  UNL     1       1.748  49.050   4.922  0.00  0.00    +0.000 C 
ATOM     11  O2  UNL     1       1.770  49.462   6.117  0.00  0.00    +0.000 OA
ATOM     12  N4  UNL     1       0.535  48.822   4.305  0.00  0.00    +0.000 N 
ATOM     13  C7  UNL     1      -0.732  49.061   5.008  0.00  0.00    +0.000 C 
ATOM     14  C8  UNL     1       4.221  49.108   4.917  0.00  0.00    +0.000 C 
ENDROOT
TORSDOF 0
ENDMDL
MODEL 7
REMARK VINA RESULT:      -4.8      2.214      4.930
REMARK  Name = .\Caffeine.pdb
REMARK  3 active torsions:
REMARK  status: ('A' for Active; 'I' for Inactive)
REMARK    1  A    between atoms: C1_1  and  N1_2
REMARK    2  A    between atoms: N3_9  and  C8_14
REMARK    3  A    between atoms: N4_12  and  C7_13
REMARK                            x       y       z     vdW  Elec       q    Type
REMARK                         _______ _______ _______ _____ _____    ______ ____
ROOT
ATOM      1  C1  UNL     1      -0.890  48.925   3.293  0.00  0.00    +0.000 C 
ATOM      2  N1  UNL     1       0.457  48.402   3.502  0.00  0.00    +0.000 N 
ATOM      3  C2  UNL     1       1.090  48.229   4.688  0.00  0.00    +0.000 C 
ATOM      4  N2  UNL     1       2.349  47.739   4.554  0.00  0.00    +0.000 NA
ATOM      5  C3  UNL     1       2.480  47.607   3.218  0.00  0.00    +0.000 C 
ATOM      6  C4  UNL     1       1.353  48.004   2.584  0.00  0.00    +0.000 C 
ATOM      7  C5  UNL     1       1.278  47.977   1.198  0.00  0.00    +0.000 C 
ATOM      8  O1  UNL     1       0.235  48.368   0.605  0.00  0.00    +0.000 OA
ATOM      9  N3  UNL     1       2.372  47.524   0.495  0.00  0.00    +0.000 N 
ATOM     10  C6  UNL     1       3.525  47.150   1.166  0.00  0.00    +0.000 C 
ATOM     11  O2  UNL     1       4.547  46.801   0.510  0.00  0.00    +0.000 OA
ATOM     12  N4  UNL     1       3.576  47.164   2.545  0.00  0.00    +0.000 N 
ATOM     13  C7  UNL     1       4.801  46.792   3.264  0.00  0.00    +0.000 C 
ATOM     14  C8  UNL     1       2.345  47.516  -0.977  0.00  0.00    +0.000 C 
ENDROOT
TORSDOF 0
ENDMDL
MODEL 8
REMARK VINA RESULT:      -4.8      2.045      3.796
REMARK  Name = .\Caffeine.pdb
REMARK  3 active torsions:
REMARK  status: ('A' for Active; 'I' for Inactive)
REMARK    1  A    between atoms: C1_1  and  N1_2
REMARK    2  A    between atoms: N3_9  and  C8_14
REMARK    3  A    between atoms: N4_12  and  C7_13
REMARK                            x       y       z     vdW  Elec       q    Type
REMARK                         _______ _______ _______ _____ _____    ______ ____
ROOT
ATOM      1  C1  UNL     1       5.086  47.639   4.304  0.00  0.00    +0.000 C 
ATOM      2  N1  UNL     1       3.664  47.967   4.258  0.00  0.00    +0.000 N 
ATOM      3  C2  UNL     1       2.866  48.285   5.307  0.00  0.00    +0.000 C 
ATOM      4  N2  UNL     1       1.579  48.522   4.946  0.00  0.00    +0.000 NA
ATOM      5  C3  UNL     1       1.604  48.342   3.610  0.00  0.00    +0.000 C 
ATOM      6  C4  UNL     1       2.847  48.006   3.193  0.00  0.00    +0.000 C 
ATOM      7  C5  UNL     1       3.095  47.748   1.852  0.00  0.00    +0.000 C 
ATOM      8  O1  UNL     1       4.249  47.415   1.467  0.00  0.00    +0.000 OA
ATOM      9  N3  UNL     1       2.048  47.855   0.964  0.00  0.00    +0.000 N 
ATOM     10  C6  UNL     1       0.778  48.170   1.418  0.00  0.00    +0.000 C 
ATOM     11  O2  UNL     1      -0.190  48.199   0.606  0.00  0.00    +0.000 OA
ATOM     12  N4  UNL     1       0.553  48.445   2.752  0.00  0.00    +0.000 N 
ATOM     13  C7  UNL     1      -0.793  48.757   3.247  0.00  0.00    +0.000 C 
ATOM     14  C8  UNL     1       2.262  47.550  -0.461  0.00  0.00    +0.000 C 
ENDROOT
TORSDOF 0
ENDMDL
MODEL 9
REMARK VINA RESULT:      -4.7      2.203      4.036
REMARK  Name = .\Caffeine.pdb
REMARK  3 active torsions:
REMARK  status: ('A' for Active; 'I' for Inactive)
REMARK    1  A    between atoms: C1_1  and  N1_2
REMARK    2  A    between atoms: N3_9  and  C8_14
REMARK    3  A    between atoms: N4_12  and  C7_13
REMARK                            x       y       z     vdW  Elec       q    Type
REMARK                         _______ _______ _______ _____ _____    ______ ____
ROOT
ATOM      1  C1  UNL     1       4.506  47.730   5.056  0.00  0.00    +0.000 C 
ATOM      2  N1  UNL     1       4.147  47.569   3.651  0.00  0.00    +0.000 N 
ATOM      3  C2  UNL     1       4.966  47.200   2.636  0.00  0.00    +0.000 C 
ATOM      4  N2  UNL     1       4.339  47.157   1.433  0.00  0.00    +0.000 NA
ATOM      5  C3  UNL     1       3.075  47.515   1.739  0.00  0.00    +0.000 C 
ATOM      6  C4  UNL     1       2.955  47.765   3.063  0.00  0.00    +0.000 C 
ATOM      7  C5  UNL     1       1.740  48.176   3.595  0.00  0.00    +0.000 C 
ATOM      8  O1  UNL     1       1.633  48.431   4.826  0.00  0.00    +0.000 OA
ATOM      9  N3  UNL     1       0.667  48.307   2.742  0.00  0.00    +0.000 N 
ATOM     10  C6  UNL     1       0.823  48.074   1.385  0.00  0.00    +0.000 C 
ATOM     11  O2  UNL     1      -0.150  48.263   0.601  0.00  0.00    +0.000 OA
ATOM     12  N4  UNL     1       2.032  47.646   0.877  0.00  0.00    +0.000 N 
ATOM     13  C7  UNL     1       2.213  47.418  -0.563  0.00  0.00    +0.000 C 
ATOM     14  C8  UNL     1      -0.628  48.778   3.261  0.00  0.00    +0.000 C 
ENDROOT
TORSDOF 0
ENDMDL
