MODEL 1
REMARK VINA RESULT:      -4.1      0.000      0.000
REMARK  Name = .\Caffeine.pdb
REMARK  3 active torsions:
REMARK  status: ('A' for Active; 'I' for Inactive)
REMARK    1  A    between atoms: C1_1  and  N1_2
REMARK    2  A    between atoms: N3_9  and  C8_14
REMARK    3  A    between atoms: N4_12  and  C7_13
REMARK                            x       y       z     vdW  Elec       q    Type
REMARK                         _______ _______ _______ _____ _____    ______ ____
ROOT
ATOM      1  C1  UNL     1     -29.377  38.388  -9.477  0.00  0.00    +0.000 C 
ATOM      2  N1  UNL     1     -28.179  37.619  -9.157  0.00  0.00    +0.000 N 
ATOM      3  C2  UNL     1     -28.124  36.413  -8.539  0.00  0.00    +0.000 C 
ATOM      4  N2  UNL     1     -26.856  35.960  -8.365  0.00  0.00    +0.000 NA
ATOM      5  C3  UNL     1     -26.108  36.941  -8.909  0.00  0.00    +0.000 C 
ATOM      6  C4  UNL     1     -26.893  37.937  -9.381  0.00  0.00    +0.000 C 
ATOM      7  C5  UNL     1     -26.328  39.065  -9.961  0.00  0.00    +0.000 C 
ATOM      8  O1  UNL     1     -27.059  40.003 -10.382  0.00  0.00    +0.000 OA
ATOM      9  N3  UNL     1     -24.956  39.132 -10.052  0.00  0.00    +0.000 N 
ATOM     10  C6  UNL     1     -24.172  38.114  -9.534  0.00  0.00    +0.000 C 
ATOM     11  O2  UNL     1     -22.913  38.215  -9.561  0.00  0.00    +0.000 OA
ATOM     12  N4  UNL     1     -24.751  36.990  -8.980  0.00  0.00    +0.000 N 
ATOM     13  C7  UNL     1     -23.929  35.916  -8.408  0.00  0.00    +0.000 C 
ATOM     14  C8  UNL     1     -24.318  40.329 -10.625  0.00  0.00    +0.000 C 
ENDROOT
TORSDOF 0
ENDMDL
MODEL 2
REMARK VINA RESULT:      -3.9      1.480      2.993
REMARK  Name = .\Caffeine.pdb
REMARK  3 active torsions:
REMARK  status: ('A' for Active; 'I' for Inactive)
REMARK    1  A    between atoms: C1_1  and  N1_2
REMARK    2  A    between atoms: N3_9  and  C8_14
REMARK    3  A    between atoms: N4_12  and  C7_13
REMARK                            x       y       z     vdW  Elec       q    Type
REMARK                         _______ _______ _______ _____ _____    ______ ____
ROOT
ATOM      1  C1  UNL     1     -28.775  36.633  -8.807  0.00  0.00    +0.000 C 
ATOM      2  N1  UNL     1     -27.901  37.688  -9.310  0.00  0.00    +0.000 N 
ATOM      3  C2  UNL     1     -28.275  38.816  -9.962  0.00  0.00    +0.000 C 
ATOM      4  N2  UNL     1     -27.225  39.598 -10.322  0.00  0.00    +0.000 NA
ATOM      5  C3  UNL     1     -26.163  38.906  -9.861  0.00  0.00    +0.000 C 
ATOM      6  C4  UNL     1     -26.561  37.762  -9.258  0.00  0.00    +0.000 C 
ATOM      7  C5  UNL     1     -25.625  36.881  -8.732  0.00  0.00    +0.000 C 
ATOM      8  O1  UNL     1     -25.995  35.804  -8.188  0.00  0.00    +0.000 OA
ATOM      9  N3  UNL     1     -24.292  37.212  -8.830  0.00  0.00    +0.000 N 
ATOM     10  C6  UNL     1     -23.908  38.375  -9.478  0.00  0.00    +0.000 C 
ATOM     11  O2  UNL     1     -22.681  38.636  -9.623  0.00  0.00    +0.000 OA
ATOM     12  N4  UNL     1     -24.852  39.249  -9.976  0.00  0.00    +0.000 N 
ATOM     13  C7  UNL     1     -24.455  40.472 -10.686  0.00  0.00    +0.000 C 
ATOM     14  C8  UNL     1     -23.268  36.286  -8.318  0.00  0.00    +0.000 C 
ENDROOT
TORSDOF 0
ENDMDL
MODEL 3
REMARK VINA RESULT:      -3.7      1.015      3.402
REMARK  Name = .\Caffeine.pdb
REMARK  3 active torsions:
REMARK  status: ('A' for Active; 'I' for Inactive)
REMARK    1  A    between atoms: C1_1  and  N1_2
REMARK    2  A    between atoms: N3_9  and  C8_14
REMARK    3  A    between atoms: N4_12  and  C7_13
REMARK                            x       y       z     vdW  Elec       q    Type
REMARK                         _______ _______ _______ _____ _____    ______ ____
ROOT
ATOM      1  C1  UNL     1     -23.360  35.963  -7.980  0.00  0.00    +0.000 C 
ATOM      2  N1  UNL     1     -24.680  36.428  -8.397  0.00  0.00    +0.000 N 
ATOM      3  C2  UNL     1     -25.866  35.804  -8.192  0.00  0.00    +0.000 C 
ATOM      4  N2  UNL     1     -26.921  36.479  -8.717  0.00  0.00    +0.000 NA
ATOM      5  C3  UNL     1     -26.340  37.566  -9.264  0.00  0.00    +0.000 C 
ATOM      6  C4  UNL     1     -25.000  37.539  -9.079  0.00  0.00    +0.000 C 
ATOM      7  C5  UNL     1     -24.198  38.553  -9.586  0.00  0.00    +0.000 C 
ATOM      8  O1  UNL     1     -22.946  38.517  -9.432  0.00  0.00    +0.000 OA
ATOM      9  N3  UNL     1     -24.805  39.585 -10.267  0.00  0.00    +0.000 N 
ATOM     10  C6  UNL     1     -26.176  39.575 -10.470  0.00  0.00    +0.000 C 
ATOM     11  O2  UNL     1     -26.715  40.490 -11.153  0.00  0.00    +0.000 OA
ATOM     12  N4  UNL     1     -26.960  38.571  -9.940  0.00  0.00    +0.000 N 
ATOM     13  C7  UNL     1     -28.410  38.539 -10.170  0.00  0.00    +0.000 C 
ATOM     14  C8  UNL     1     -23.985  40.658 -10.853  0.00  0.00    +0.000 C 
ENDROOT
TORSDOF 0
ENDMDL
MODEL 4
REMARK VINA RESULT:      -3.6      1.694      4.558
REMARK  Name = .\Caffeine.pdb
REMARK  3 active torsions:
REMARK  status: ('A' for Active; 'I' for Inactive)
REMARK    1  A    between atoms: C1_1  and  N1_2
REMARK    2  A    between atoms: N3_9  and  C8_14
REMARK    3  A    between atoms: N4_12  and  C7_13
REMARK                            x       y       z     vdW  Elec       q    Type
REMARK                         _______ _______ _______ _____ _____    ______ ____
ROOT
ATOM      1  C1  UNL     1     -23.118  36.091  -8.312  0.00  0.00    +0.000 C 
ATOM      2  N1  UNL     1     -23.758  37.155  -9.079  0.00  0.00    +0.000 N 
ATOM      3  C2  UNL     1     -23.144  38.112  -9.818  0.00  0.00    +0.000 C 
ATOM      4  N2  UNL     1     -24.014  38.976 -10.401  0.00  0.00    +0.000 NA
ATOM      5  C3  UNL     1     -25.214  38.515  -9.995  0.00  0.00    +0.000 C 
ATOM      6  C4  UNL     1     -25.067  37.428  -9.202  0.00  0.00    +0.000 C 
ATOM      7  C5  UNL     1     -26.178  36.805  -8.648  0.00  0.00    +0.000 C 
ATOM      8  O1  UNL     1     -26.040  35.805  -7.892  0.00  0.00    +0.000 OA
ATOM      9  N3  UNL     1     -27.423  37.314  -8.940  0.00  0.00    +0.000 N 
ATOM     10  C6  UNL     1     -27.546  38.445  -9.731  0.00  0.00    +0.000 C 
ATOM     11  O2  UNL     1     -28.688  38.946  -9.938  0.00  0.00    +0.000 OA
ATOM     12  N4  UNL     1     -26.433  39.040 -10.290  0.00  0.00    +0.000 N 
ATOM     13  C7  UNL     1     -26.551  40.253 -11.109  0.00  0.00    +0.000 C 
ATOM     14  C8  UNL     1     -28.622  36.705  -8.342  0.00  0.00    +0.000 C 
ENDROOT
TORSDOF 0
ENDMDL
MODEL 5
REMARK VINA RESULT:      -3.6      1.620      4.018
REMARK  Name = .\Caffeine.pdb
REMARK  3 active torsions:
REMARK  status: ('A' for Active; 'I' for Inactive)
REMARK    1  A    between atoms: C1_1  and  N1_2
REMARK    2  A    between atoms: N3_9  and  C8_14
REMARK    3  A    between atoms: N4_12  and  C7_13
REMARK                            x       y       z     vdW  Elec       q    Type
REMARK                         _______ _______ _______ _____ _____    ______ ____
ROOT
ATOM      1  C1  UNL     1     -23.697  40.964 -10.869  0.00  0.00    +0.000 C 
ATOM      2  N1  UNL     1     -24.942  40.261 -10.574  0.00  0.00    +0.000 N 
ATOM      3  C2  UNL     1     -26.201  40.676 -10.861  0.00  0.00    +0.000 C 
ATOM      4  N2  UNL     1     -27.157  39.808 -10.442  0.00  0.00    +0.000 NA
ATOM      5  C3  UNL     1     -26.438  38.819  -9.875  0.00  0.00    +0.000 C 
ATOM      6  C4  UNL     1     -25.113  39.085  -9.948  0.00  0.00    +0.000 C 
ATOM      7  C5  UNL     1     -24.187  38.208  -9.401  0.00  0.00    +0.000 C 
ATOM      8  O1  UNL     1     -22.953  38.467  -9.451  0.00  0.00    +0.000 OA
ATOM      9  N3  UNL     1     -24.653  37.061  -8.798  0.00  0.00    +0.000 N 
ATOM     10  C6  UNL     1     -26.015  36.825  -8.709  0.00  0.00    +0.000 C 
ATOM     11  O2  UNL     1     -26.436  35.804  -8.095  0.00  0.00    +0.000 OA
ATOM     12  N4  UNL     1     -26.921  37.697  -9.277  0.00  0.00    +0.000 N 
ATOM     13  C7  UNL     1     -28.368  37.467  -9.168  0.00  0.00    +0.000 C 
ATOM     14  C8  UNL     1     -23.704  36.125  -8.173  0.00  0.00    +0.000 C 
ENDROOT
TORSDOF 0
ENDMDL
MODEL 6
REMARK VINA RESULT:      -3.3      1.640      3.676
REMARK  Name = .\Caffeine.pdb
REMARK  3 active torsions:
REMARK  status: ('A' for Active; 'I' for Inactive)
REMARK    1  A    between atoms: C1_1  and  N1_2
REMARK    2  A    between atoms: N3_9  and  C8_14
REMARK    3  A    between atoms: N4_12  and  C7_13
REMARK                            x       y       z     vdW  Elec       q    Type
REMARK                         _______ _______ _______ _____ _____    ______ ____
ROOT
ATOM      1  C1  UNL     1     -24.132  40.695 -11.027  0.00  0.00    +0.000 C 
ATOM      2  N1  UNL     1     -24.325  39.499 -10.213  0.00  0.00    +0.000 N 
ATOM      3  C2  UNL     1     -23.360  38.699  -9.696  0.00  0.00    +0.000 C 
ATOM      4  N2  UNL     1     -23.857  37.647  -8.996  0.00  0.00    +0.000 NA
ATOM      5  C3  UNL     1     -25.191  37.823  -9.094  0.00  0.00    +0.000 C 
ATOM      6  C4  UNL     1     -25.476  38.927  -9.823  0.00  0.00    +0.000 C 
ATOM      7  C5  UNL     1     -26.794  39.285 -10.073  0.00  0.00    +0.000 C 
ATOM      8  O1  UNL     1     -27.061  40.302 -10.770  0.00  0.00    +0.000 OA
ATOM      9  N3  UNL     1     -27.794  38.495  -9.549  0.00  0.00    +0.000 N 
ATOM     10  C6  UNL     1     -27.476  37.353  -8.832  0.00  0.00    +0.000 C 
ATOM     11  O2  UNL     1     -28.399  36.598  -8.413  0.00  0.00    +0.000 OA
ATOM     12  N4  UNL     1     -26.161  37.024  -8.575  0.00  0.00    +0.000 N 
ATOM     13  C7  UNL     1     -25.814  35.804  -7.835  0.00  0.00    +0.000 C 
ATOM     14  C8  UNL     1     -29.203  38.819  -9.824  0.00  0.00    +0.000 C 
ENDROOT
TORSDOF 0
ENDMDL
MODEL 7
REMARK VINA RESULT:      -3.3      1.364      3.607
REMARK  Name = .\Caffeine.pdb
REMARK  3 active torsions:
REMARK  status: ('A' for Active; 'I' for Inactive)
REMARK    1  A    between atoms: C1_1  and  N1_2
REMARK    2  A    between atoms: N3_9  and  C8_14
REMARK    3  A    between atoms: N4_12  and  C7_13
REMARK                            x       y       z     vdW  Elec       q    Type
REMARK                         _______ _______ _______ _____ _____    ______ ____
ROOT
ATOM      1  C1  UNL     1     -22.345  37.092  -9.883  0.00  0.00    +0.000 C 
ATOM      2  N1  UNL     1     -23.681  36.831  -9.356  0.00  0.00    +0.000 N 
ATOM      3  C2  UNL     1     -24.056  35.804  -8.553  0.00  0.00    +0.000 C 
ATOM      4  N2  UNL     1     -25.378  35.823  -8.245  0.00  0.00    +0.000 NA
ATOM      5  C3  UNL     1     -25.823  36.919  -8.893  0.00  0.00    +0.000 C 
ATOM      6  C4  UNL     1     -24.813  37.523  -9.562  0.00  0.00    +0.000 C 
ATOM      7  C5  UNL     1     -25.053  38.660 -10.322  0.00  0.00    +0.000 C 
ATOM      8  O1  UNL     1     -24.117  39.212 -10.962  0.00  0.00    +0.000 OA
ATOM      9  N3  UNL     1     -26.337  39.157 -10.363  0.00  0.00    +0.000 N 
ATOM     10  C6  UNL     1     -27.359  38.503  -9.695  0.00  0.00    +0.000 C 
ATOM     11  O2  UNL     1     -28.546  38.926  -9.794  0.00  0.00    +0.000 OA
ATOM     12  N4  UNL     1     -27.099  37.386  -8.927  0.00  0.00    +0.000 N 
ATOM     13  C7  UNL     1     -28.179  36.672  -8.234  0.00  0.00    +0.000 C 
ATOM     14  C8  UNL     1     -26.639  40.338 -11.189  0.00  0.00    +0.000 C 
ENDROOT
TORSDOF 0
ENDMDL
MODEL 8
REMARK VINA RESULT:      -3.2      2.553      4.381
REMARK  Name = .\Caffeine.pdb
REMARK  3 active torsions:
REMARK  status: ('A' for Active; 'I' for Inactive)
REMARK    1  A    between atoms: C1_1  and  N1_2
REMARK    2  A    between atoms: N3_9  and  C8_14
REMARK    3  A    between atoms: N4_12  and  C7_13
REMARK                            x       y       z     vdW  Elec       q    Type
REMARK                         _______ _______ _______ _____ _____    ______ ____
ROOT
ATOM      1  C1  UNL     1     -21.638  36.597 -10.680  0.00  0.00    +0.000 C 
ATOM      2  N1  UNL     1     -23.000  36.667 -11.199  0.00  0.00    +0.000 N 
ATOM      3  C2  UNL     1     -23.590  35.804 -12.063  0.00  0.00    +0.000 C 
ATOM      4  N2  UNL     1     -24.865  36.150 -12.375  0.00  0.00    +0.000 NA
ATOM      5  C3  UNL     1     -25.055  37.278 -11.660  0.00  0.00    +0.000 C 
ATOM      6  C4  UNL     1     -23.942  37.594 -10.958  0.00  0.00    +0.000 C 
ATOM      7  C5  UNL     1     -23.907  38.736 -10.170  0.00  0.00    +0.000 C 
ATOM      8  O1  UNL     1     -22.863  39.043  -9.532  0.00  0.00    +0.000 OA
ATOM      9  N3  UNL     1     -25.035  39.524 -10.116  0.00  0.00    +0.000 N 
ATOM     10  C6  UNL     1     -26.152  39.196 -10.867  0.00  0.00    +0.000 C 
ATOM     11  O2  UNL     1     -27.157  39.961 -10.864  0.00  0.00    +0.000 OA
ATOM     12  N4  UNL     1     -26.177  38.046 -11.628  0.00  0.00    +0.000 N 
ATOM     13  C7  UNL     1     -27.347  37.701 -12.446  0.00  0.00    +0.000 C 
ATOM     14  C8  UNL     1     -25.024  40.765  -9.322  0.00  0.00    +0.000 C 
ENDROOT
TORSDOF 0
ENDMDL
MODEL 9
REMARK VINA RESULT:      -3.0      2.823      4.331
REMARK  Name = .\Caffeine.pdb
REMARK  3 active torsions:
REMARK  status: ('A' for Active; 'I' for Inactive)
REMARK    1  A    between atoms: C1_1  and  N1_2
REMARK    2  A    between atoms: N3_9  and  C8_14
REMARK    3  A    between atoms: N4_12  and  C7_13
REMARK                            x       y       z     vdW  Elec       q    Type
REMARK                         _______ _______ _______ _____ _____    ______ ____
ROOT
ATOM      1  C1  UNL     1     -23.394  40.609  -9.073  0.00  0.00    +0.000 C 
ATOM      2  N1  UNL     1     -24.555  40.100  -9.796  0.00  0.00    +0.000 N 
ATOM      3  C2  UNL     1     -25.784  40.668  -9.869  0.00  0.00    +0.000 C 
ATOM      4  N2  UNL     1     -26.664  39.943 -10.606  0.00  0.00    +0.000 NA
ATOM      5  C3  UNL     1     -25.927  38.885 -11.000  0.00  0.00    +0.000 C 
ATOM      6  C4  UNL     1     -24.666  38.972 -10.517  0.00  0.00    +0.000 C 
ATOM      7  C5  UNL     1     -23.739  37.972 -10.780  0.00  0.00    +0.000 C 
ATOM      8  O1  UNL     1     -22.570  38.042 -10.312  0.00  0.00    +0.000 OA
ATOM      9  N3  UNL     1     -24.137  36.904 -11.553  0.00  0.00    +0.000 N 
ATOM     10  C6  UNL     1     -25.442  36.822 -12.011  0.00  0.00    +0.000 C 
ATOM     11  O2  UNL     1     -25.816  35.806 -12.662  0.00  0.00    +0.000 OA
ATOM     12  N4  UNL     1     -26.343  37.835 -11.758  0.00  0.00    +0.000 N 
ATOM     13  C7  UNL     1     -27.735  37.747 -12.219  0.00  0.00    +0.000 C 
ATOM     14  C8  UNL     1     -23.196  35.804 -11.821  0.00  0.00    +0.000 C 
ENDROOT
TORSDOF 0
ENDMDL
