MODEL 1
REMARK VINA RESULT:      -5.0      0.000      0.000
REMARK  Name = .\Caffeine.pdb
REMARK  3 active torsions:
REMARK  status: ('A' for Active; 'I' for Inactive)
REMARK    1  A    between atoms: C1_1  and  N1_2
REMARK    2  A    between atoms: N3_9  and  C8_14
REMARK    3  A    between atoms: N4_12  and  C7_13
REMARK                            x       y       z     vdW  Elec       q    Type
REMARK                         _______ _______ _______ _____ _____    ______ ____
ROOT
ATOM      1  C1  UNL     1       3.245  38.424  41.902  0.00  0.00    +0.000 C 
ATOM      2  N1  UNL     1       2.781  39.175  40.740  0.00  0.00    +0.000 N 
ATOM      3  C2  UNL     1       3.451  39.379  39.579  0.00  0.00    +0.000 C 
ATOM      4  N2  UNL     1       2.760  40.139  38.691  0.00  0.00    +0.000 NA
ATOM      5  C3  UNL     1       1.613  40.404  39.349  0.00  0.00    +0.000 C 
ATOM      6  C4  UNL     1       1.621  39.833  40.576  0.00  0.00    +0.000 C 
ATOM      7  C5  UNL     1       0.546  40.000  41.438  0.00  0.00    +0.000 C 
ATOM      8  O1  UNL     1       0.562  39.485  42.589  0.00  0.00    +0.000 OA
ATOM      9  N3  UNL     1      -0.526  40.747  41.004  0.00  0.00    +0.000 N 
ATOM     10  C6  UNL     1      -0.498  41.347  39.755  0.00  0.00    +0.000 C 
ATOM     11  O2  UNL     1      -1.456  42.087  39.392  0.00  0.00    +0.000 OA
ATOM     12  N4  UNL     1       0.570  41.153  38.903  0.00  0.00    +0.000 N 
ATOM     13  C7  UNL     1       0.619  41.803  37.587  0.00  0.00    +0.000 C 
ATOM     14  C8  UNL     1      -1.669  40.980  41.903  0.00  0.00    +0.000 C 
ENDROOT
TORSDOF 0
ENDMDL
MODEL 2
REMARK VINA RESULT:      -5.0      1.498      3.000
REMARK  Name = .\Caffeine.pdb
REMARK  3 active torsions:
REMARK  status: ('A' for Active; 'I' for Inactive)
REMARK    1  A    between atoms: C1_1  and  N1_2
REMARK    2  A    between atoms: N3_9  and  C8_14
REMARK    3  A    between atoms: N4_12  and  C7_13
REMARK                            x       y       z     vdW  Elec       q    Type
REMARK                         _______ _______ _______ _____ _____    ______ ____
ROOT
ATOM      1  C1  UNL     1       3.691  38.323  40.663  0.00  0.00    +0.000 C 
ATOM      2  N1  UNL     1       2.433  38.867  41.164  0.00  0.00    +0.000 N 
ATOM      3  C2  UNL     1       1.841  38.593  42.353  0.00  0.00    +0.000 C 
ATOM      4  N2  UNL     1       0.662  39.243  42.524  0.00  0.00    +0.000 NA
ATOM      5  C3  UNL     1       0.538  39.948  41.381  0.00  0.00    +0.000 C 
ATOM      6  C4  UNL     1       1.592  39.724  40.563  0.00  0.00    +0.000 C 
ATOM      7  C5  UNL     1       1.657  40.331  39.316  0.00  0.00    +0.000 C 
ATOM      8  O1  UNL     1       2.629  40.107  38.544  0.00  0.00    +0.000 OA
ATOM      9  N3  UNL     1       0.630  41.171  38.946  0.00  0.00    +0.000 N 
ATOM     10  C6  UNL     1      -0.453  41.360  39.789  0.00  0.00    +0.000 C 
ATOM     11  O2  UNL     1      -1.423  42.078  39.413  0.00  0.00    +0.000 OA
ATOM     12  N4  UNL     1      -0.492  40.766  41.033  0.00  0.00    +0.000 N 
ATOM     13  C7  UNL     1      -1.646  40.941  41.924  0.00  0.00    +0.000 C 
ATOM     14  C8  UNL     1       0.643  41.802  37.616  0.00  0.00    +0.000 C 
ENDROOT
TORSDOF 0
ENDMDL
MODEL 3
REMARK VINA RESULT:      -4.8      1.598      3.766
REMARK  Name = .\Caffeine.pdb
REMARK  3 active torsions:
REMARK  status: ('A' for Active; 'I' for Inactive)
REMARK    1  A    between atoms: C1_1  and  N1_2
REMARK    2  A    between atoms: N3_9  and  C8_14
REMARK    3  A    between atoms: N4_12  and  C7_13
REMARK                            x       y       z     vdW  Elec       q    Type
REMARK                         _______ _______ _______ _____ _____    ______ ____
ROOT
ATOM      1  C1  UNL     1      -1.284  41.393  40.889  0.00  0.00    +0.000 C 
ATOM      2  N1  UNL     1      -0.114  41.078  40.075  0.00  0.00    +0.000 N 
ATOM      3  C2  UNL     1       0.238  41.649  38.897  0.00  0.00    +0.000 C 
ATOM      4  N2  UNL     1       1.375  41.126  38.370  0.00  0.00    +0.000 NA
ATOM      5  C3  UNL     1       1.728  40.195  39.278  0.00  0.00    +0.000 C 
ATOM      6  C4  UNL     1       0.840  40.159  40.299  0.00  0.00    +0.000 C 
ATOM      7  C5  UNL     1       0.996  39.250  41.337  0.00  0.00    +0.000 C 
ATOM      8  O1  UNL     1       0.156  39.202  42.278  0.00  0.00    +0.000 OA
ATOM      9  N3  UNL     1       2.081  38.403  41.303  0.00  0.00    +0.000 N 
ATOM     10  C6  UNL     1       2.959  38.438  40.233  0.00  0.00    +0.000 C 
ATOM     11  O2  UNL     1       3.913  37.611  40.176  0.00  0.00    +0.000 OA
ATOM     12  N4  UNL     1       2.801  39.362  39.220  0.00  0.00    +0.000 N 
ATOM     13  C7  UNL     1       3.714  39.392  38.070  0.00  0.00    +0.000 C 
ATOM     14  C8  UNL     1       2.260  37.400  42.366  0.00  0.00    +0.000 C 
ENDROOT
TORSDOF 0
ENDMDL
MODEL 4
REMARK VINA RESULT:      -4.5      2.566      4.924
REMARK  Name = .\Caffeine.pdb
REMARK  3 active torsions:
REMARK  status: ('A' for Active; 'I' for Inactive)
REMARK    1  A    between atoms: C1_1  and  N1_2
REMARK    2  A    between atoms: N3_9  and  C8_14
REMARK    3  A    between atoms: N4_12  and  C7_13
REMARK                            x       y       z     vdW  Elec       q    Type
REMARK                         _______ _______ _______ _____ _____    ______ ____
ROOT
ATOM      1  C1  UNL     1      -1.012  41.239  40.677  0.00  0.00    +0.000 C 
ATOM      2  N1  UNL     1      -0.101  40.565  41.596  0.00  0.00    +0.000 N 
ATOM      3  C2  UNL     1       0.354  41.034  42.784  0.00  0.00    +0.000 C 
ATOM      4  N2  UNL     1       1.209  40.180  43.403  0.00  0.00    +0.000 NA
ATOM      5  C3  UNL     1       1.271  39.142  42.544  0.00  0.00    +0.000 C 
ATOM      6  C4  UNL     1       0.493  39.368  41.461  0.00  0.00    +0.000 C 
ATOM      7  C5  UNL     1       0.428  38.437  40.433  0.00  0.00    +0.000 C 
ATOM      8  O1  UNL     1      -0.281  38.657  39.413  0.00  0.00    +0.000 OA
ATOM      9  N3  UNL     1       1.164  37.279  40.556  0.00  0.00    +0.000 N 
ATOM     10  C6  UNL     1       1.977  37.084  41.661  0.00  0.00    +0.000 C 
ATOM     11  O2  UNL     1       2.700  36.051  41.733  0.00  0.00    +0.000 OA
ATOM     12  N4  UNL     1       2.013  38.010  42.682  0.00  0.00    +0.000 N 
ATOM     13  C7  UNL     1       2.889  37.824  43.846  0.00  0.00    +0.000 C 
ATOM     14  C8  UNL     1       1.152  36.285  39.470  0.00  0.00    +0.000 C 
ENDROOT
TORSDOF 0
ENDMDL
MODEL 5
REMARK VINA RESULT:      -4.5      2.757      4.514
REMARK  Name = .\Caffeine.pdb
REMARK  3 active torsions:
REMARK  status: ('A' for Active; 'I' for Inactive)
REMARK    1  A    between atoms: C1_1  and  N1_2
REMARK    2  A    between atoms: N3_9  and  C8_14
REMARK    3  A    between atoms: N4_12  and  C7_13
REMARK                            x       y       z     vdW  Elec       q    Type
REMARK                         _______ _______ _______ _____ _____    ______ ____
ROOT
ATOM      1  C1  UNL     1      -0.321  41.357  42.538  0.00  0.00    +0.000 C 
ATOM      2  N1  UNL     1      -0.103  40.239  41.625  0.00  0.00    +0.000 N 
ATOM      3  C2  UNL     1      -0.728  40.018  40.443  0.00  0.00    +0.000 C 
ATOM      4  N2  UNL     1      -0.320  38.877  39.829  0.00  0.00    +0.000 NA
ATOM      5  C3  UNL     1       0.600  38.388  40.685  0.00  0.00    +0.000 C 
ATOM      6  C4  UNL     1       0.732  39.196  41.762  0.00  0.00    +0.000 C 
ATOM      7  C5  UNL     1       1.611  38.869  42.786  0.00  0.00    +0.000 C 
ATOM      8  O1  UNL     1       1.719  39.611  43.800  0.00  0.00    +0.000 OA
ATOM      9  N3  UNL     1       2.348  37.711  42.665  0.00  0.00    +0.000 N 
ATOM     10  C6  UNL     1       2.173  36.884  41.568  0.00  0.00    +0.000 C 
ATOM     11  O2  UNL     1       2.803  35.791  41.499  0.00  0.00    +0.000 OA
ATOM     12  N4  UNL     1       1.311  37.236  40.550  0.00  0.00    +0.000 N 
ATOM     13  C7  UNL     1       1.101  36.355  39.393  0.00  0.00    +0.000 C 
ATOM     14  C8  UNL     1       3.262  37.310  43.748  0.00  0.00    +0.000 C 
ENDROOT
TORSDOF 0
ENDMDL
MODEL 6
REMARK VINA RESULT:      -4.5      2.558      3.567
REMARK  Name = .\Caffeine.pdb
REMARK  3 active torsions:
REMARK  status: ('A' for Active; 'I' for Inactive)
REMARK    1  A    between atoms: C1_1  and  N1_2
REMARK    2  A    between atoms: N3_9  and  C8_14
REMARK    3  A    between atoms: N4_12  and  C7_13
REMARK                            x       y       z     vdW  Elec       q    Type
REMARK                         _______ _______ _______ _____ _____    ______ ____
ROOT
ATOM      1  C1  UNL     1       2.735  35.833  39.650  0.00  0.00    +0.000 C 
ATOM      2  N1  UNL     1       1.872  37.011  39.659  0.00  0.00    +0.000 N 
ATOM      3  C2  UNL     1       0.529  37.039  39.479  0.00  0.00    +0.000 C 
ATOM      4  N2  UNL     1       0.011  38.294  39.524  0.00  0.00    +0.000 NA
ATOM      5  C3  UNL     1       1.098  39.060  39.747  0.00  0.00    +0.000 C 
ATOM      6  C4  UNL     1       2.214  38.299  39.825  0.00  0.00    +0.000 C 
ATOM      7  C5  UNL     1       3.456  38.887  40.025  0.00  0.00    +0.000 C 
ATOM      8  O1  UNL     1       4.499  38.180  40.078  0.00  0.00    +0.000 OA
ATOM      9  N3  UNL     1       3.514  40.257  40.153  0.00  0.00    +0.000 N 
ATOM     10  C6  UNL     1       2.361  41.017  40.039  0.00  0.00    +0.000 C 
ATOM     11  O2  UNL     1       2.433  42.278  40.090  0.00  0.00    +0.000 OA
ATOM     12  N4  UNL     1       1.133  40.415  39.862  0.00  0.00    +0.000 N 
ATOM     13  C7  UNL     1      -0.091  41.213  39.716  0.00  0.00    +0.000 C 
ATOM     14  C8  UNL     1       4.816  40.922  40.328  0.00  0.00    +0.000 C 
ENDROOT
TORSDOF 0
ENDMDL
MODEL 7
REMARK VINA RESULT:      -4.4      2.228      2.847
REMARK  Name = .\Caffeine.pdb
REMARK  3 active torsions:
REMARK  status: ('A' for Active; 'I' for Inactive)
REMARK    1  A    between atoms: C1_1  and  N1_2
REMARK    2  A    between atoms: N3_9  and  C8_14
REMARK    3  A    between atoms: N4_12  and  C7_13
REMARK                            x       y       z     vdW  Elec       q    Type
REMARK                         _______ _______ _______ _____ _____    ______ ____
ROOT
ATOM      1  C1  UNL     1       1.166  36.149  39.057  0.00  0.00    +0.000 C 
ATOM      2  N1  UNL     1       2.115  37.214  39.365  0.00  0.00    +0.000 N 
ATOM      3  C2  UNL     1       3.467  37.121  39.386  0.00  0.00    +0.000 C 
ATOM      4  N2  UNL     1       4.077  38.285  39.728  0.00  0.00    +0.000 NA
ATOM      5  C3  UNL     1       3.039  39.124  39.920  0.00  0.00    +0.000 C 
ATOM      6  C4  UNL     1       1.863  38.488  39.707  0.00  0.00    +0.000 C 
ATOM      7  C5  UNL     1       0.659  39.159  39.874  0.00  0.00    +0.000 C 
ATOM      8  O1  UNL     1      -0.438  38.561  39.697  0.00  0.00    +0.000 OA
ATOM      9  N3  UNL     1       0.699  40.484  40.248  0.00  0.00    +0.000 N 
ATOM     10  C6  UNL     1       1.914  41.104  40.489  0.00  0.00    +0.000 C 
ATOM     11  O2  UNL     1       1.938  42.300  40.897  0.00  0.00    +0.000 OA
ATOM     12  N4  UNL     1       3.101  40.429  40.297  0.00  0.00    +0.000 N 
ATOM     13  C7  UNL     1       4.393  41.070  40.573  0.00  0.00    +0.000 C 
ATOM     14  C8  UNL     1      -0.557  41.219  40.473  0.00  0.00    +0.000 C 
ENDROOT
TORSDOF 0
ENDMDL
MODEL 8
REMARK VINA RESULT:      -4.3      2.396      3.858
REMARK  Name = .\Caffeine.pdb
REMARK  3 active torsions:
REMARK  status: ('A' for Active; 'I' for Inactive)
REMARK    1  A    between atoms: C1_1  and  N1_2
REMARK    2  A    between atoms: N3_9  and  C8_14
REMARK    3  A    between atoms: N4_12  and  C7_13
REMARK                            x       y       z     vdW  Elec       q    Type
REMARK                         _______ _______ _______ _____ _____    ______ ____
ROOT
ATOM      1  C1  UNL     1      -1.311  41.006  41.793  0.00  0.00    +0.000 C 
ATOM      2  N1  UNL     1      -0.313  40.371  40.938  0.00  0.00    +0.000 N 
ATOM      3  C2  UNL     1      -0.485  39.274  40.160  0.00  0.00    +0.000 C 
ATOM      4  N2  UNL     1       0.641  38.911  39.493  0.00  0.00    +0.000 NA
ATOM      5  C3  UNL     1       1.536  39.839  39.887  0.00  0.00    +0.000 C 
ATOM      6  C4  UNL     1       0.972  40.713  40.753  0.00  0.00    +0.000 C 
ATOM      7  C5  UNL     1       1.724  41.740  41.307  0.00  0.00    +0.000 C 
ATOM      8  O1  UNL     1       1.205  42.542  42.131  0.00  0.00    +0.000 OA
ATOM      9  N3  UNL     1       3.047  41.849  40.940  0.00  0.00    +0.000 N 
ATOM     10  C6  UNL     1       3.609  40.925  40.075  0.00  0.00    +0.000 C 
ATOM     11  O2  UNL     1       4.840  40.992  39.797  0.00  0.00    +0.000 OA
ATOM     12  N4  UNL     1       2.842  39.923  39.517  0.00  0.00    +0.000 N 
ATOM     13  C7  UNL     1       3.434  38.924  38.617  0.00  0.00    +0.000 C 
ATOM     14  C8  UNL     1       3.888  42.901  41.536  0.00  0.00    +0.000 C 
ENDROOT
TORSDOF 0
ENDMDL
MODEL 9
REMARK VINA RESULT:      -4.3      2.397      4.307
REMARK  Name = .\Caffeine.pdb
REMARK  3 active torsions:
REMARK  status: ('A' for Active; 'I' for Inactive)
REMARK    1  A    between atoms: C1_1  and  N1_2
REMARK    2  A    between atoms: N3_9  and  C8_14
REMARK    3  A    between atoms: N4_12  and  C7_13
REMARK                            x       y       z     vdW  Elec       q    Type
REMARK                         _______ _______ _______ _____ _____    ______ ____
ROOT
ATOM      1  C1  UNL     1      -0.690  41.199  40.282  0.00  0.00    +0.000 C 
ATOM      2  N1  UNL     1       0.735  40.912  40.406  0.00  0.00    +0.000 N 
ATOM      3  C2  UNL     1       1.719  41.787  40.729  0.00  0.00    +0.000 C 
ATOM      4  N2  UNL     1       2.953  41.221  40.745  0.00  0.00    +0.000 NA
ATOM      5  C3  UNL     1       2.700  39.938  40.418  0.00  0.00    +0.000 C 
ATOM      6  C4  UNL     1       1.376  39.748  40.211  0.00  0.00    +0.000 C 
ATOM      7  C5  UNL     1       0.893  38.500  39.837  0.00  0.00    +0.000 C 
ATOM      8  O1  UNL     1      -0.338  38.328  39.623  0.00  0.00    +0.000 OA
ATOM      9  N3  UNL     1       1.795  37.469  39.698  0.00  0.00    +0.000 N 
ATOM     10  C6  UNL     1       3.148  37.695  39.886  0.00  0.00    +0.000 C 
ATOM     11  O2  UNL     1       3.974  36.760  39.690  0.00  0.00    +0.000 OA
ATOM     12  N4  UNL     1       3.608  38.935  40.278  0.00  0.00    +0.000 N 
ATOM     13  C7  UNL     1       5.043  39.192  40.458  0.00  0.00    +0.000 C 
ATOM     14  C8  UNL     1       1.327  36.141  39.265  0.00  0.00    +0.000 C 
ENDROOT
TORSDOF 0
ENDMDL
