MODEL 1
REMARK VINA RESULT:      -3.3      0.000      0.000
REMARK  Name = .\Caffeine.pdb
REMARK  3 active torsions:
REMARK  status: ('A' for Active; 'I' for Inactive)
REMARK    1  A    between atoms: C1_1  and  N1_2
REMARK    2  A    between atoms: N3_9  and  C8_14
REMARK    3  A    between atoms: N4_12  and  C7_13
REMARK                            x       y       z     vdW  Elec       q    Type
REMARK                         _______ _______ _______ _____ _____    ______ ____
ROOT
ATOM      1  C1  UNL     1     -20.959  60.689  87.724  0.00  0.00    +0.000 C 
ATOM      2  N1  UNL     1     -20.154  60.850  86.517  0.00  0.00    +0.000 N 
ATOM      3  C2  UNL     1     -19.574  61.991  86.069  0.00  0.00    +0.000 C 
ATOM      4  N2  UNL     1     -18.901  61.824  84.901  0.00  0.00    +0.000 NA
ATOM      5  C3  UNL     1     -19.083  60.515  84.633  0.00  0.00    +0.000 C 
ATOM      6  C4  UNL     1     -19.834  59.928  85.594  0.00  0.00    +0.000 C 
ATOM      7  C5  UNL     1     -20.167  58.583  85.505  0.00  0.00    +0.000 C 
ATOM      8  O1  UNL     1     -20.884  58.041  86.389  0.00  0.00    +0.000 OA
ATOM      9  N3  UNL     1     -19.702  57.868  84.423  0.00  0.00    +0.000 N 
ATOM     10  C6  UNL     1     -18.961  58.499  83.437  0.00  0.00    +0.000 C 
ATOM     11  O2  UNL     1     -18.597  57.851  82.415  0.00  0.00    +0.000 OA
ATOM     12  N4  UNL     1     -18.621  59.831  83.553  0.00  0.00    +0.000 N 
ATOM     13  C7  UNL     1     -17.856  60.514  82.502  0.00  0.00    +0.000 C 
ATOM     14  C8  UNL     1     -20.066  56.450  84.272  0.00  0.00    +0.000 C 
ENDROOT
TORSDOF 0
ENDMDL
MODEL 2
REMARK VINA RESULT:      -3.1      2.530      3.453
REMARK  Name = .\Caffeine.pdb
REMARK  3 active torsions:
REMARK  status: ('A' for Active; 'I' for Inactive)
REMARK    1  A    between atoms: C1_1  and  N1_2
REMARK    2  A    between atoms: N3_9  and  C8_14
REMARK    3  A    between atoms: N4_12  and  C7_13
REMARK                            x       y       z     vdW  Elec       q    Type
REMARK                         _______ _______ _______ _____ _____    ______ ____
ROOT
ATOM      1  C1  UNL     1     -20.043  61.695  86.877  0.00  0.00    +0.000 C 
ATOM      2  N1  UNL     1     -19.401  61.001  85.764  0.00  0.00    +0.000 N 
ATOM      3  C2  UNL     1     -18.482  60.008  85.844  0.00  0.00    +0.000 C 
ATOM      4  N2  UNL     1     -18.056  59.576  84.629  0.00  0.00    +0.000 NA
ATOM      5  C3  UNL     1     -18.757  60.347  83.773  0.00  0.00    +0.000 C 
ATOM      6  C4  UNL     1     -19.560  61.204  84.446  0.00  0.00    +0.000 C 
ATOM      7  C5  UNL     1     -20.355  62.112  83.759  0.00  0.00    +0.000 C 
ATOM      8  O1  UNL     1     -21.088  62.924  84.387  0.00  0.00    +0.000 OA
ATOM      9  N3  UNL     1     -20.310  62.105  82.383  0.00  0.00    +0.000 N 
ATOM     10  C6  UNL     1     -19.457  61.240  81.717  0.00  0.00    +0.000 C 
ATOM     11  O2  UNL     1     -19.372  61.287  80.458  0.00  0.00    +0.000 OA
ATOM     12  N4  UNL     1     -18.690  60.329  82.415  0.00  0.00    +0.000 N 
ATOM     13  C7  UNL     1     -17.766  59.424  81.720  0.00  0.00    +0.000 C 
ATOM     14  C8  UNL     1     -21.108  63.079  81.620  0.00  0.00    +0.000 C 
ENDROOT
TORSDOF 0
ENDMDL
MODEL 3
REMARK VINA RESULT:      -3.1      1.779      3.116
REMARK  Name = .\Caffeine.pdb
REMARK  3 active torsions:
REMARK  status: ('A' for Active; 'I' for Inactive)
REMARK    1  A    between atoms: C1_1  and  N1_2
REMARK    2  A    between atoms: N3_9  and  C8_14
REMARK    3  A    between atoms: N4_12  and  C7_13
REMARK                            x       y       z     vdW  Elec       q    Type
REMARK                         _______ _______ _______ _____ _____    ______ ____
ROOT
ATOM      1  C1  UNL     1     -19.616  61.204  82.506  0.00  0.00    +0.000 C 
ATOM      2  N1  UNL     1     -19.186  60.672  83.795  0.00  0.00    +0.000 N 
ATOM      3  C2  UNL     1     -18.451  61.311  84.738  0.00  0.00    +0.000 C 
ATOM      4  N2  UNL     1     -18.195  60.542  85.828  0.00  0.00    +0.000 NA
ATOM      5  C3  UNL     1     -18.810  59.380  85.527  0.00  0.00    +0.000 C 
ATOM      6  C4  UNL     1     -19.402  59.451  84.312  0.00  0.00    +0.000 C 
ATOM      7  C5  UNL     1     -20.073  58.353  83.790  0.00  0.00    +0.000 C 
ATOM      8  O1  UNL     1     -20.607  58.412  82.649  0.00  0.00    +0.000 OA
ATOM      9  N3  UNL     1     -20.129  57.204  84.547  0.00  0.00    +0.000 N 
ATOM     10  C6  UNL     1     -19.490  57.147  85.775  0.00  0.00    +0.000 C 
ATOM     11  O2  UNL     1     -19.489  56.067  86.432  0.00  0.00    +0.000 OA
ATOM     12  N4  UNL     1     -18.846  58.253  86.288  0.00  0.00    +0.000 N 
ATOM     13  C7  UNL     1     -18.146  58.195  87.577  0.00  0.00    +0.000 C 
ATOM     14  C8  UNL     1     -20.799  56.007  84.013  0.00  0.00    +0.000 C 
ENDROOT
TORSDOF 0
ENDMDL
MODEL 4
REMARK VINA RESULT:      -3.1      1.499      2.992
REMARK  Name = .\Caffeine.pdb
REMARK  3 active torsions:
REMARK  status: ('A' for Active; 'I' for Inactive)
REMARK    1  A    between atoms: C1_1  and  N1_2
REMARK    2  A    between atoms: N3_9  and  C8_14
REMARK    3  A    between atoms: N4_12  and  C7_13
REMARK                            x       y       z     vdW  Elec       q    Type
REMARK                         _______ _______ _______ _____ _____    ______ ____
ROOT
ATOM      1  C1  UNL     1     -20.313  61.783  87.241  0.00  0.00    +0.000 C 
ATOM      2  N1  UNL     1     -20.377  60.439  86.676  0.00  0.00    +0.000 N 
ATOM      3  C2  UNL     1     -20.986  59.355  87.216  0.00  0.00    +0.000 C 
ATOM      4  N2  UNL     1     -20.855  58.236  86.458  0.00  0.00    +0.000 NA
ATOM      5  C3  UNL     1     -20.131  58.669  85.406  0.00  0.00    +0.000 C 
ATOM      6  C4  UNL     1     -19.840  59.984  85.532  0.00  0.00    +0.000 C 
ATOM      7  C5  UNL     1     -19.078  60.633  84.570  0.00  0.00    +0.000 C 
ATOM      8  O1  UNL     1     -18.788  61.854  84.698  0.00  0.00    +0.000 OA
ATOM      9  N3  UNL     1     -18.642  59.905  83.485  0.00  0.00    +0.000 N 
ATOM     10  C6  UNL     1     -18.928  58.553  83.393  0.00  0.00    +0.000 C 
ATOM     11  O2  UNL     1     -18.467  57.878  82.429  0.00  0.00    +0.000 OA
ATOM     12  N4  UNL     1     -19.704  57.929  84.347  0.00  0.00    +0.000 N 
ATOM     13  C7  UNL     1     -19.993  56.491  84.271  0.00  0.00    +0.000 C 
ATOM     14  C8  UNL     1     -17.799  60.548  82.463  0.00  0.00    +0.000 C 
ENDROOT
TORSDOF 0
ENDMDL
MODEL 5
REMARK VINA RESULT:      -3.0      2.420      4.714
REMARK  Name = .\Caffeine.pdb
REMARK  3 active torsions:
REMARK  status: ('A' for Active; 'I' for Inactive)
REMARK    1  A    between atoms: C1_1  and  N1_2
REMARK    2  A    between atoms: N3_9  and  C8_14
REMARK    3  A    between atoms: N4_12  and  C7_13
REMARK                            x       y       z     vdW  Elec       q    Type
REMARK                         _______ _______ _______ _____ _____    ______ ____
ROOT
ATOM      1  C1  UNL     1     -20.008  59.360  80.284  0.00  0.00    +0.000 C 
ATOM      2  N1  UNL     1     -19.478  59.209  81.636  0.00  0.00    +0.000 N 
ATOM      3  C2  UNL     1     -18.740  58.176  82.112  0.00  0.00    +0.000 C 
ATOM      4  N2  UNL     1     -18.410  58.315  83.421  0.00  0.00    +0.000 NA
ATOM      5  C3  UNL     1     -18.976  59.494  83.751  0.00  0.00    +0.000 C 
ATOM      6  C4  UNL     1     -19.619  60.031  82.688  0.00  0.00    +0.000 C 
ATOM      7  C5  UNL     1     -20.297  61.236  82.810  0.00  0.00    +0.000 C 
ATOM      8  O1  UNL     1     -20.914  61.727  81.826  0.00  0.00    +0.000 OA
ATOM      9  N3  UNL     1     -20.284  61.869  84.034  0.00  0.00    +0.000 N 
ATOM     10  C6  UNL     1     -19.644  61.285  85.114  0.00  0.00    +0.000 C 
ATOM     11  O2  UNL     1     -19.696  61.839  86.249  0.00  0.00    +0.000 OA
ATOM     12  N4  UNL     1     -18.957  60.097  84.970  0.00  0.00    +0.000 N 
ATOM     13  C7  UNL     1     -18.296  59.457  86.114  0.00  0.00    +0.000 C 
ATOM     14  C8  UNL     1     -21.024  63.129  84.214  0.00  0.00    +0.000 C 
ENDROOT
TORSDOF 0
ENDMDL
MODEL 6
REMARK VINA RESULT:      -3.0      2.279      3.071
REMARK  Name = .\Caffeine.pdb
REMARK  3 active torsions:
REMARK  status: ('A' for Active; 'I' for Inactive)
REMARK    1  A    between atoms: C1_1  and  N1_2
REMARK    2  A    between atoms: N3_9  and  C8_14
REMARK    3  A    between atoms: N4_12  and  C7_13
REMARK                            x       y       z     vdW  Elec       q    Type
REMARK                         _______ _______ _______ _____ _____    ______ ____
ROOT
ATOM      1  C1  UNL     1     -18.101  59.008  85.995  0.00  0.00    +0.000 C 
ATOM      2  N1  UNL     1     -18.813  60.099  85.337  0.00  0.00    +0.000 N 
ATOM      3  C2  UNL     1     -19.258  61.245  85.909  0.00  0.00    +0.000 C 
ATOM      4  N2  UNL     1     -19.904  62.061  85.037  0.00  0.00    +0.000 NA
ATOM      5  C3  UNL     1     -19.843  61.372  83.879  0.00  0.00    +0.000 C 
ATOM      6  C4  UNL     1     -19.195  60.197  84.053  0.00  0.00    +0.000 C 
ATOM      7  C5  UNL     1     -19.039  59.314  82.993  0.00  0.00    +0.000 C 
ATOM      8  O1  UNL     1     -18.454  58.209  83.160  0.00  0.00    +0.000 OA
ATOM      9  N3  UNL     1     -19.550  59.675  81.766  0.00  0.00    +0.000 N 
ATOM     10  C6  UNL     1     -20.236  60.869  81.620  0.00  0.00    +0.000 C 
ATOM     11  O2  UNL     1     -20.759  61.160  80.507  0.00  0.00    +0.000 OA
ATOM     12  N4  UNL     1     -20.363  61.744  82.679  0.00  0.00    +0.000 N 
ATOM     13  C7  UNL     1     -21.108  63.002  82.540  0.00  0.00    +0.000 C 
ATOM     14  C8  UNL     1     -19.439  58.749  80.626  0.00  0.00    +0.000 C 
ENDROOT
TORSDOF 0
ENDMDL
MODEL 7
REMARK VINA RESULT:      -3.0      2.115      3.584
REMARK  Name = .\Caffeine.pdb
REMARK  3 active torsions:
REMARK  status: ('A' for Active; 'I' for Inactive)
REMARK    1  A    between atoms: C1_1  and  N1_2
REMARK    2  A    between atoms: N3_9  and  C8_14
REMARK    3  A    between atoms: N4_12  and  C7_13
REMARK                            x       y       z     vdW  Elec       q    Type
REMARK                         _______ _______ _______ _____ _____    ______ ____
ROOT
ATOM      1  C1  UNL     1     -18.646  58.257  88.000  0.00  0.00    +0.000 C 
ATOM      2  N1  UNL     1     -19.155  57.652  86.774  0.00  0.00    +0.000 N 
ATOM      3  C2  UNL     1     -19.776  56.453  86.652  0.00  0.00    +0.000 C 
ATOM      4  N2  UNL     1     -20.117  56.156  85.372  0.00  0.00    +0.000 NA
ATOM      5  C3  UNL     1     -19.682  57.232  84.687  0.00  0.00    +0.000 C 
ATOM      6  C4  UNL     1     -19.103  58.129  85.519  0.00  0.00    +0.000 C 
ATOM      7  C5  UNL     1     -18.559  59.305  85.020  0.00  0.00    +0.000 C 
ATOM      8  O1  UNL     1     -18.000  60.131  85.793  0.00  0.00    +0.000 OA
ATOM      9  N3  UNL     1     -18.639  59.535  83.664  0.00  0.00    +0.000 N 
ATOM     10  C6  UNL     1     -19.210  58.588  82.829  0.00  0.00    +0.000 C 
ATOM     11  O2  UNL     1     -19.217  58.777  81.580  0.00  0.00    +0.000 OA
ATOM     12  N4  UNL     1     -19.764  57.435  83.345  0.00  0.00    +0.000 N 
ATOM     13  C7  UNL     1     -20.350  56.415  82.466  0.00  0.00    +0.000 C 
ATOM     14  C8  UNL     1     -18.040  60.752  83.092  0.00  0.00    +0.000 C 
ENDROOT
TORSDOF 0
ENDMDL
MODEL 8
REMARK VINA RESULT:      -3.0      2.352      4.324
REMARK  Name = .\Caffeine.pdb
REMARK  3 active torsions:
REMARK  status: ('A' for Active; 'I' for Inactive)
REMARK    1  A    between atoms: C1_1  and  N1_2
REMARK    2  A    between atoms: N3_9  and  C8_14
REMARK    3  A    between atoms: N4_12  and  C7_13
REMARK                            x       y       z     vdW  Elec       q    Type
REMARK                         _______ _______ _______ _____ _____    ______ ____
ROOT
ATOM      1  C1  UNL     1     -19.233  58.867  80.077  0.00  0.00    +0.000 C 
ATOM      2  N1  UNL     1     -19.727  59.915  80.966  0.00  0.00    +0.000 N 
ATOM      3  C2  UNL     1     -20.521  60.962  80.631  0.00  0.00    +0.000 C 
ATOM      4  N2  UNL     1     -20.795  61.779  81.680  0.00  0.00    +0.000 NA
ATOM      5  C3  UNL     1     -20.135  61.194  82.699  0.00  0.00    +0.000 C 
ATOM      6  C4  UNL     1     -19.492  60.080  82.278  0.00  0.00    +0.000 C 
ATOM      7  C5  UNL     1     -18.725  59.332  83.161  0.00  0.00    +0.000 C 
ATOM      8  O1  UNL     1     -18.108  58.306  82.764  0.00  0.00    +0.000 OA
ATOM      9  N3  UNL     1     -18.650  59.748  84.472  0.00  0.00    +0.000 N 
ATOM     10  C6  UNL     1     -19.293  60.908  84.873  0.00  0.00    +0.000 C 
ATOM     11  O2  UNL     1     -19.164  61.319  86.060  0.00  0.00    +0.000 OA
ATOM     12  N4  UNL     1     -20.068  61.628  83.986  0.00  0.00    +0.000 N 
ATOM     13  C7  UNL     1     -20.734  62.871  84.395  0.00  0.00    +0.000 C 
ATOM     14  C8  UNL     1     -17.816  59.004  85.430  0.00  0.00    +0.000 C 
ENDROOT
TORSDOF 0
ENDMDL
MODEL 9
REMARK VINA RESULT:      -2.9      2.247      4.912
REMARK  Name = .\Caffeine.pdb
REMARK  3 active torsions:
REMARK  status: ('A' for Active; 'I' for Inactive)
REMARK    1  A    between atoms: C1_1  and  N1_2
REMARK    2  A    between atoms: N3_9  and  C8_14
REMARK    3  A    between atoms: N4_12  and  C7_13
REMARK                            x       y       z     vdW  Elec       q    Type
REMARK                         _______ _______ _______ _____ _____    ______ ____
ROOT
ATOM      1  C1  UNL     1     -18.284  60.509  79.836  0.00  0.00    +0.000 C 
ATOM      2  N1  UNL     1     -18.909  59.355  80.474  0.00  0.00    +0.000 N 
ATOM      3  C2  UNL     1     -19.589  58.354  79.863  0.00  0.00    +0.000 C 
ATOM      4  N2  UNL     1     -20.071  57.429  80.732  0.00  0.00    +0.000 NA
ATOM      5  C3  UNL     1     -19.659  57.895  81.928  0.00  0.00    +0.000 C 
ATOM      6  C4  UNL     1     -18.966  59.048  81.780  0.00  0.00    +0.000 C 
ATOM      7  C5  UNL     1     -18.468  59.719  82.890  0.00  0.00    +0.000 C 
ATOM      8  O1  UNL     1     -17.841  60.805  82.754  0.00  0.00    +0.000 OA
ATOM      9  N3  UNL     1     -18.688  59.171  84.134  0.00  0.00    +0.000 N 
ATOM     10  C6  UNL     1     -19.426  58.005  84.262  0.00  0.00    +0.000 C 
ATOM     11  O2  UNL     1     -19.680  57.546  85.411  0.00  0.00    +0.000 OA
ATOM     12  N4  UNL     1     -19.895  57.341  83.147  0.00  0.00    +0.000 N 
ATOM     13  C7  UNL     1     -20.698  56.118  83.273  0.00  0.00    +0.000 C 
ATOM     14  C8  UNL     1     -18.210  59.871  85.337  0.00  0.00    +0.000 C 
ENDROOT
TORSDOF 0
ENDMDL
