MODEL 1
REMARK VINA RESULT:      -4.1      0.000      0.000
REMARK  Name = .\Caffeine.pdb
REMARK  3 active torsions:
REMARK  status: ('A' for Active; 'I' for Inactive)
REMARK    1  A    between atoms: C1_1  and  N1_2
REMARK    2  A    between atoms: N3_9  and  C8_14
REMARK    3  A    between atoms: N4_12  and  C7_13
REMARK                            x       y       z     vdW  Elec       q    Type
REMARK                         _______ _______ _______ _____ _____    ______ ____
ROOT
ATOM      1  C1  UNL     1      -3.818  69.037 -45.409  0.00  0.00    +0.000 C 
ATOM      2  N1  UNL     1      -4.476  70.235 -44.896  0.00  0.00    +0.000 N 
ATOM      3  C2  UNL     1      -5.797  70.532 -44.961  0.00  0.00    +0.000 C 
ATOM      4  N2  UNL     1      -6.101  71.735 -44.408  0.00  0.00    +0.000 NA
ATOM      5  C3  UNL     1      -4.902  72.184 -43.986  0.00  0.00    +0.000 C 
ATOM      6  C4  UNL     1      -3.926  71.293 -44.278  0.00  0.00    +0.000 C 
ATOM      7  C5  UNL     1      -2.604  71.566 -43.954  0.00  0.00    +0.000 C 
ATOM      8  O1  UNL     1      -1.691  70.745 -44.245  0.00  0.00    +0.000 OA
ATOM      9  N3  UNL     1      -2.321  72.755 -43.321  0.00  0.00    +0.000 N 
ATOM     10  C6  UNL     1      -3.333  73.665 -43.060  0.00  0.00    +0.000 C 
ATOM     11  O2  UNL     1      -3.054  74.782 -42.540  0.00  0.00    +0.000 OA
ATOM     12  N4  UNL     1      -4.644  73.368 -43.369  0.00  0.00    +0.000 N 
ATOM     13  C7  UNL     1      -5.721  74.335 -43.118  0.00  0.00    +0.000 C 
ATOM     14  C8  UNL     1      -0.926  73.098 -42.997  0.00  0.00    +0.000 C 
ENDROOT
TORSDOF 0
ENDMDL
MODEL 2
REMARK VINA RESULT:      -4.0      2.708      4.431
REMARK  Name = .\Caffeine.pdb
REMARK  3 active torsions:
REMARK  status: ('A' for Active; 'I' for Inactive)
REMARK    1  A    between atoms: C1_1  and  N1_2
REMARK    2  A    between atoms: N3_9  and  C8_14
REMARK    3  A    between atoms: N4_12  and  C7_13
REMARK                            x       y       z     vdW  Elec       q    Type
REMARK                         _______ _______ _______ _____ _____    ______ ____
ROOT
ATOM      1  C1  UNL     1      -3.431  72.052 -43.090  0.00  0.00    +0.000 C 
ATOM      2  N1  UNL     1      -4.533  71.599 -43.932  0.00  0.00    +0.000 N 
ATOM      3  C2  UNL     1      -4.639  70.405 -44.566  0.00  0.00    +0.000 C 
ATOM      4  N2  UNL     1      -5.779  70.286 -45.294  0.00  0.00    +0.000 NA
ATOM      5  C3  UNL     1      -6.394  71.468 -45.084  0.00  0.00    +0.000 C 
ATOM      6  C4  UNL     1      -5.653  72.258 -44.274  0.00  0.00    +0.000 C 
ATOM      7  C5  UNL     1      -6.086  73.536 -43.946  0.00  0.00    +0.000 C 
ATOM      8  O1  UNL     1      -5.385  74.280 -43.207  0.00  0.00    +0.000 OA
ATOM      9  N3  UNL     1      -7.291  73.965 -44.456  0.00  0.00    +0.000 N 
ATOM     10  C6  UNL     1      -8.018  73.150 -45.308  0.00  0.00    +0.000 C 
ATOM     11  O2  UNL     1      -9.088  73.578 -45.826  0.00  0.00    +0.000 OA
ATOM     12  N4  UNL     1      -7.582  71.875 -45.607  0.00  0.00    +0.000 N 
ATOM     13  C7  UNL     1      -8.333  71.012 -46.527  0.00  0.00    +0.000 C 
ATOM     14  C8  UNL     1      -7.766  75.328 -44.163  0.00  0.00    +0.000 C 
ENDROOT
TORSDOF 0
ENDMDL
MODEL 3
REMARK VINA RESULT:      -4.0      1.811      3.277
REMARK  Name = .\Caffeine.pdb
REMARK  3 active torsions:
REMARK  status: ('A' for Active; 'I' for Inactive)
REMARK    1  A    between atoms: C1_1  and  N1_2
REMARK    2  A    between atoms: N3_9  and  C8_14
REMARK    3  A    between atoms: N4_12  and  C7_13
REMARK                            x       y       z     vdW  Elec       q    Type
REMARK                         _______ _______ _______ _____ _____    ______ ____
ROOT
ATOM      1  C1  UNL     1      -1.600  71.045 -43.982  0.00  0.00    +0.000 C 
ATOM      2  N1  UNL     1      -2.920  70.874 -44.579  0.00  0.00    +0.000 N 
ATOM      3  C2  UNL     1      -3.308  69.899 -45.438  0.00  0.00    +0.000 C 
ATOM      4  N2  UNL     1      -4.601  70.021 -45.835  0.00  0.00    +0.000 NA
ATOM      5  C3  UNL     1      -5.014  71.124 -45.179  0.00  0.00    +0.000 C 
ATOM      6  C4  UNL     1      -4.013  71.641 -44.430  0.00  0.00    +0.000 C 
ATOM      7  C5  UNL     1      -4.212  72.798 -43.689  0.00  0.00    +0.000 C 
ATOM      8  O1  UNL     1      -3.273  73.292 -43.007  0.00  0.00    +0.000 OA
ATOM      9  N3  UNL     1      -5.454  73.392 -43.731  0.00  0.00    +0.000 N 
ATOM     10  C6  UNL     1      -6.454  72.861 -44.529  0.00  0.00    +0.000 C 
ATOM     11  O2  UNL     1      -7.569  73.451 -44.614  0.00  0.00    +0.000 OA
ATOM     12  N4  UNL     1      -6.246  71.699 -45.242  0.00  0.00    +0.000 N 
ATOM     13  C7  UNL     1      -7.291  71.141 -46.110  0.00  0.00    +0.000 C 
ATOM     14  C8  UNL     1      -5.694  74.642 -42.990  0.00  0.00    +0.000 C 
ENDROOT
TORSDOF 0
ENDMDL
MODEL 4
REMARK VINA RESULT:      -4.0      1.846      3.793
REMARK  Name = .\Caffeine.pdb
REMARK  3 active torsions:
REMARK  status: ('A' for Active; 'I' for Inactive)
REMARK    1  A    between atoms: C1_1  and  N1_2
REMARK    2  A    between atoms: N3_9  and  C8_14
REMARK    3  A    between atoms: N4_12  and  C7_13
REMARK                            x       y       z     vdW  Elec       q    Type
REMARK                         _______ _______ _______ _____ _____    ______ ____
ROOT
ATOM      1  C1  UNL     1      -8.620  73.912 -44.955  0.00  0.00    +0.000 C 
ATOM      2  N1  UNL     1      -7.686  72.821 -45.213  0.00  0.00    +0.000 N 
ATOM      3  C2  UNL     1      -7.889  71.744 -46.012  0.00  0.00    +0.000 C 
ATOM      4  N2  UNL     1      -6.834  70.889 -46.033  0.00  0.00    +0.000 NA
ATOM      5  C3  UNL     1      -5.949  71.482 -45.206  0.00  0.00    +0.000 C 
ATOM      6  C4  UNL     1      -6.454  72.636 -44.710  0.00  0.00    +0.000 C 
ATOM      7  C5  UNL     1      -5.718  73.400 -43.814  0.00  0.00    +0.000 C 
ATOM      8  O1  UNL     1      -6.197  74.464 -43.336  0.00  0.00    +0.000 OA
ATOM      9  N3  UNL     1      -4.463  72.957 -43.459  0.00  0.00    +0.000 N 
ATOM     10  C6  UNL     1      -3.981  71.757 -43.956  0.00  0.00    +0.000 C 
ATOM     11  O2  UNL     1      -2.857  71.325 -43.571  0.00  0.00    +0.000 OA
ATOM     12  N4  UNL     1      -4.716  71.022 -44.862  0.00  0.00    +0.000 N 
ATOM     13  C7  UNL     1      -4.224  69.738 -45.377  0.00  0.00    +0.000 C 
ATOM     14  C8  UNL     1      -3.668  73.718 -42.481  0.00  0.00    +0.000 C 
ENDROOT
TORSDOF 0
ENDMDL
MODEL 5
REMARK VINA RESULT:      -4.0      1.749      3.791
REMARK  Name = .\Caffeine.pdb
REMARK  3 active torsions:
REMARK  status: ('A' for Active; 'I' for Inactive)
REMARK    1  A    between atoms: C1_1  and  N1_2
REMARK    2  A    between atoms: N3_9  and  C8_14
REMARK    3  A    between atoms: N4_12  and  C7_13
REMARK                            x       y       z     vdW  Elec       q    Type
REMARK                         _______ _______ _______ _____ _____    ______ ____
ROOT
ATOM      1  C1  UNL     1      -7.848  73.233 -44.944  0.00  0.00    +0.000 C 
ATOM      2  N1  UNL     1      -6.528  73.337 -44.330  0.00  0.00    +0.000 N 
ATOM      3  C2  UNL     1      -6.068  74.348 -43.552  0.00  0.00    +0.000 C 
ATOM      4  N2  UNL     1      -4.786  74.165 -43.143  0.00  0.00    +0.000 NA
ATOM      5  C3  UNL     1      -4.458  72.982 -43.701  0.00  0.00    +0.000 C 
ATOM      6  C4  UNL     1      -5.494  72.484 -44.414  0.00  0.00    +0.000 C 
ATOM      7  C5  UNL     1      -5.366  71.282 -45.097  0.00  0.00    +0.000 C 
ATOM      8  O1  UNL     1      -6.325  70.828 -45.780  0.00  0.00    +0.000 OA
ATOM      9  N3  UNL     1      -4.166  70.612 -45.016  0.00  0.00    +0.000 N 
ATOM     10  C6  UNL     1      -3.110  71.157 -44.304  0.00  0.00    +0.000 C 
ATOM     11  O2  UNL     1      -1.992  70.568 -44.291  0.00  0.00    +0.000 OA
ATOM     12  N4  UNL     1      -3.261  72.342 -43.614  0.00  0.00    +0.000 N 
ATOM     13  C7  UNL     1      -2.141  72.939 -42.876  0.00  0.00    +0.000 C 
ATOM     14  C8  UNL     1      -3.978  69.354 -45.758  0.00  0.00    +0.000 C 
ENDROOT
TORSDOF 0
ENDMDL
MODEL 6
REMARK VINA RESULT:      -4.0      3.308      4.054
REMARK  Name = .\Caffeine.pdb
REMARK  3 active torsions:
REMARK  status: ('A' for Active; 'I' for Inactive)
REMARK    1  A    between atoms: C1_1  and  N1_2
REMARK    2  A    between atoms: N3_9  and  C8_14
REMARK    3  A    between atoms: N4_12  and  C7_13
REMARK                            x       y       z     vdW  Elec       q    Type
REMARK                         _______ _______ _______ _____ _____    ______ ____
ROOT
ATOM      1  C1  UNL     1      -2.576  70.075 -45.425  0.00  0.00    +0.000 C 
ATOM      2  N1  UNL     1      -3.965  70.518 -45.356  0.00  0.00    +0.000 N 
ATOM      3  C2  UNL     1      -4.913  70.096 -44.483  0.00  0.00    +0.000 C 
ATOM      4  N2  UNL     1      -6.121  70.683 -44.683  0.00  0.00    +0.000 NA
ATOM      5  C3  UNL     1      -5.889  71.502 -45.729  0.00  0.00    +0.000 C 
ATOM      6  C4  UNL     1      -4.602  71.405 -46.137  0.00  0.00    +0.000 C 
ATOM      7  C5  UNL     1      -4.149  72.145 -47.221  0.00  0.00    +0.000 C 
ATOM      8  O1  UNL     1      -2.955  72.040 -47.615  0.00  0.00    +0.000 OA
ATOM      9  N3  UNL     1      -5.040  72.984 -47.854  0.00  0.00    +0.000 N 
ATOM     10  C6  UNL     1      -6.359  73.043 -47.437  0.00  0.00    +0.000 C 
ATOM     11  O2  UNL     1      -7.185  73.763 -48.066  0.00  0.00    +0.000 OA
ATOM     12  N4  UNL     1      -6.787  72.317 -46.344  0.00  0.00    +0.000 N 
ATOM     13  C7  UNL     1      -8.189  72.355 -45.908  0.00  0.00    +0.000 C 
ATOM     14  C8  UNL     1      -4.608  73.756 -49.031  0.00  0.00    +0.000 C 
ENDROOT
TORSDOF 0
ENDMDL
MODEL 7
REMARK VINA RESULT:      -3.9      3.970      5.100
REMARK  Name = .\Caffeine.pdb
REMARK  3 active torsions:
REMARK  status: ('A' for Active; 'I' for Inactive)
REMARK    1  A    between atoms: C1_1  and  N1_2
REMARK    2  A    between atoms: N3_9  and  C8_14
REMARK    3  A    between atoms: N4_12  and  C7_13
REMARK                            x       y       z     vdW  Elec       q    Type
REMARK                         _______ _______ _______ _____ _____    ______ ____
ROOT
ATOM      1  C1  UNL     1      -4.165  69.442 -45.386  0.00  0.00    +0.000 C 
ATOM      2  N1  UNL     1      -3.888  70.560 -46.282  0.00  0.00    +0.000 N 
ATOM      3  C2  UNL     1      -2.672  70.977 -46.714  0.00  0.00    +0.000 C 
ATOM      4  N2  UNL     1      -2.738  72.062 -47.529  0.00  0.00    +0.000 NA
ATOM      5  C3  UNL     1      -4.063  72.309 -47.593  0.00  0.00    +0.000 C 
ATOM      6  C4  UNL     1      -4.754  71.417 -46.847  0.00  0.00    +0.000 C 
ATOM      7  C5  UNL     1      -6.137  71.501 -46.750  0.00  0.00    +0.000 C 
ATOM      8  O1  UNL     1      -6.780  70.683 -46.038  0.00  0.00    +0.000 OA
ATOM      9  N3  UNL     1      -6.778  72.506 -47.440  0.00  0.00    +0.000 N 
ATOM     10  C6  UNL     1      -6.045  73.425 -48.173  0.00  0.00    +0.000 C 
ATOM     11  O2  UNL     1      -6.636  74.383 -48.748  0.00  0.00    +0.000 OA
ATOM     12  N4  UNL     1      -4.674  73.313 -48.277  0.00  0.00    +0.000 N 
ATOM     13  C7  UNL     1      -3.886  74.297 -49.031  0.00  0.00    +0.000 C 
ATOM     14  C8  UNL     1      -8.239  72.653 -47.331  0.00  0.00    +0.000 C 
ENDROOT
TORSDOF 0
ENDMDL
MODEL 8
REMARK VINA RESULT:      -3.9      1.909      3.282
REMARK  Name = .\Caffeine.pdb
REMARK  3 active torsions:
REMARK  status: ('A' for Active; 'I' for Inactive)
REMARK    1  A    between atoms: C1_1  and  N1_2
REMARK    2  A    between atoms: N3_9  and  C8_14
REMARK    3  A    between atoms: N4_12  and  C7_13
REMARK                            x       y       z     vdW  Elec       q    Type
REMARK                         _______ _______ _______ _____ _____    ______ ____
ROOT
ATOM      1  C1  UNL     1      -3.836  69.236 -45.747  0.00  0.00    +0.000 C 
ATOM      2  N1  UNL     1      -3.546  70.428 -44.955  0.00  0.00    +0.000 N 
ATOM      3  C2  UNL     1      -2.379  70.730 -44.333  0.00  0.00    +0.000 C 
ATOM      4  N2  UNL     1      -2.425  71.906 -43.656  0.00  0.00    +0.000 NA
ATOM      5  C3  UNL     1      -3.683  72.336 -43.884  0.00  0.00    +0.000 C 
ATOM      6  C4  UNL     1      -4.358  71.455 -44.658  0.00  0.00    +0.000 C 
ATOM      7  C5  UNL     1      -5.685  71.687 -44.996  0.00  0.00    +0.000 C 
ATOM      8  O1  UNL     1      -6.321  70.855 -45.700  0.00  0.00    +0.000 OA
ATOM      9  N3  UNL     1      -6.282  72.839 -44.535  0.00  0.00    +0.000 N 
ATOM     10  C6  UNL     1      -5.579  73.711 -43.720  0.00  0.00    +0.000 C 
ATOM     11  O2  UNL     1      -6.156  74.730 -43.246  0.00  0.00    +0.000 OA
ATOM     12  N4  UNL     1      -4.255  73.475 -43.411  0.00  0.00    +0.000 N 
ATOM     13  C7  UNL     1      -3.508  74.381 -42.529  0.00  0.00    +0.000 C 
ATOM     14  C8  UNL     1      -7.698  73.102 -44.840  0.00  0.00    +0.000 C 
ENDROOT
TORSDOF 0
ENDMDL
MODEL 9
REMARK VINA RESULT:      -3.8      1.860      4.491
REMARK  Name = .\Caffeine.pdb
REMARK  3 active torsions:
REMARK  status: ('A' for Active; 'I' for Inactive)
REMARK    1  A    between atoms: C1_1  and  N1_2
REMARK    2  A    between atoms: N3_9  and  C8_14
REMARK    3  A    between atoms: N4_12  and  C7_13
REMARK                            x       y       z     vdW  Elec       q    Type
REMARK                         _______ _______ _______ _____ _____    ______ ____
ROOT
ATOM      1  C1  UNL     1      -2.283  74.262 -42.343  0.00  0.00    +0.000 C 
ATOM      2  N1  UNL     1      -2.531  73.007 -43.046  0.00  0.00    +0.000 N 
ATOM      3  C2  UNL     1      -1.647  72.002 -43.259  0.00  0.00    +0.000 C 
ATOM      4  N2  UNL     1      -2.174  70.968 -43.964  0.00  0.00    +0.000 NA
ATOM      5  C3  UNL     1      -3.442  71.370 -44.185  0.00  0.00    +0.000 C 
ATOM      6  C4  UNL     1      -3.660  72.590 -43.642  0.00  0.00    +0.000 C 
ATOM      7  C5  UNL     1      -4.897  73.208 -43.773  0.00  0.00    +0.000 C 
ATOM      8  O1  UNL     1      -5.095  74.355 -43.284  0.00  0.00    +0.000 OA
ATOM      9  N3  UNL     1      -5.889  72.542 -44.457  0.00  0.00    +0.000 N 
ATOM     10  C6  UNL     1      -5.631  71.307 -45.030  0.00  0.00    +0.000 C 
ATOM     11  O2  UNL     1      -6.526  70.734 -45.714  0.00  0.00    +0.000 OA
ATOM     12  N4  UNL     1      -4.404  70.698 -44.872  0.00  0.00    +0.000 N 
ATOM     13  C7  UNL     1      -4.114  69.400 -45.496  0.00  0.00    +0.000 C 
ATOM     14  C8  UNL     1      -7.201  73.181 -44.651  0.00  0.00    +0.000 C 
ENDROOT
TORSDOF 0
ENDMDL
