MODEL 1
REMARK VINA RESULT:      -4.0      0.000      0.000
REMARK  Name = .\Caffeine.pdb
REMARK  3 active torsions:
REMARK  status: ('A' for Active; 'I' for Inactive)
REMARK    1  A    between atoms: C1_1  and  N1_2
REMARK    2  A    between atoms: N3_9  and  C8_14
REMARK    3  A    between atoms: N4_12  and  C7_13
REMARK                            x       y       z     vdW  Elec       q    Type
REMARK                         _______ _______ _______ _____ _____    ______ ____
ROOT
ATOM      1  C1  UNL     1      -7.357  75.374 -36.268  0.00  0.00    +0.000 C 
ATOM      2  N1  UNL     1      -8.435  74.488 -35.841  0.00  0.00    +0.000 N 
ATOM      3  C2  UNL     1      -8.340  73.165 -35.559  0.00  0.00    +0.000 C 
ATOM      4  N2  UNL     1      -9.527  72.608 -35.205  0.00  0.00    +0.000 NA
ATOM      5  C3  UNL     1     -10.380  73.650 -35.274  0.00  0.00    +0.000 C 
ATOM      6  C4  UNL     1      -9.734  74.776 -35.657  0.00  0.00    +0.000 C 
ATOM      7  C5  UNL     1     -10.428  75.967 -35.818  0.00  0.00    +0.000 C 
ATOM      8  O1  UNL     1      -9.830  77.011 -36.196  0.00  0.00    +0.000 OA
ATOM      9  N3  UNL     1     -11.782  75.970 -35.566  0.00  0.00    +0.000 N 
ATOM     10  C6  UNL     1     -12.427  74.799 -35.204  0.00  0.00    +0.000 C 
ATOM     11  O2  UNL     1     -13.680  74.796 -35.041  0.00  0.00    +0.000 OA
ATOM     12  N4  UNL     1     -11.718  73.629 -35.028  0.00  0.00    +0.000 N 
ATOM     13  C7  UNL     1     -12.395  72.376 -34.668  0.00  0.00    +0.000 C 
ATOM     14  C8  UNL     1     -12.561  77.204 -35.763  0.00  0.00    +0.000 C 
ENDROOT
TORSDOF 0
ENDMDL
MODEL 2
REMARK VINA RESULT:      -4.0      2.718      4.469
REMARK  Name = .\Caffeine.pdb
REMARK  3 active torsions:
REMARK  status: ('A' for Active; 'I' for Inactive)
REMARK    1  A    between atoms: C1_1  and  N1_2
REMARK    2  A    between atoms: N3_9  and  C8_14
REMARK    3  A    between atoms: N4_12  and  C7_13
REMARK                            x       y       z     vdW  Elec       q    Type
REMARK                         _______ _______ _______ _____ _____    ______ ____
ROOT
ATOM      1  C1  UNL     1     -12.334  75.111 -39.463  0.00  0.00    +0.000 C 
ATOM      2  N1  UNL     1     -10.959  75.120 -38.975  0.00  0.00    +0.000 N 
ATOM      3  C2  UNL     1      -9.893  75.732 -39.549  0.00  0.00    +0.000 C 
ATOM      4  N2  UNL     1      -8.736  75.542 -38.863  0.00  0.00    +0.000 NA
ATOM      5  C3  UNL     1      -9.125  74.779 -37.822  0.00  0.00    +0.000 C 
ATOM      6  C4  UNL     1     -10.452  74.521 -37.885  0.00  0.00    +0.000 C 
ATOM      7  C5  UNL     1     -11.063  73.728 -36.922  0.00  0.00    +0.000 C 
ATOM      8  O1  UNL     1     -12.295  73.470 -36.993  0.00  0.00    +0.000 OA
ATOM      9  N3  UNL     1     -10.284  73.227 -35.903  0.00  0.00    +0.000 N 
ATOM     10  C6  UNL     1      -8.922  73.480 -35.876  0.00  0.00    +0.000 C 
ATOM     11  O2  UNL     1      -8.205  72.960 -34.976  0.00  0.00    +0.000 OA
ATOM     12  N4  UNL     1      -8.336  74.287 -36.829  0.00  0.00    +0.000 N 
ATOM     13  C7  UNL     1      -6.890  74.542 -36.823  0.00  0.00    +0.000 C 
ATOM     14  C8  UNL     1     -10.887  72.350 -34.885  0.00  0.00    +0.000 C 
ENDROOT
TORSDOF 0
ENDMDL
MODEL 3
REMARK VINA RESULT:      -4.0      1.107      3.455
REMARK  Name = .\Caffeine.pdb
REMARK  3 active torsions:
REMARK  status: ('A' for Active; 'I' for Inactive)
REMARK    1  A    between atoms: C1_1  and  N1_2
REMARK    2  A    between atoms: N3_9  and  C8_14
REMARK    3  A    between atoms: N4_12  and  C7_13
REMARK                            x       y       z     vdW  Elec       q    Type
REMARK                         _______ _______ _______ _____ _____    ______ ____
ROOT
ATOM      1  C1  UNL     1     -11.979  72.409 -34.819  0.00  0.00    +0.000 C 
ATOM      2  N1  UNL     1     -10.702  73.021 -35.169  0.00  0.00    +0.000 N 
ATOM      3  C2  UNL     1      -9.500  72.402 -35.268  0.00  0.00    +0.000 C 
ATOM      4  N2  UNL     1      -8.489  73.248 -35.595  0.00  0.00    +0.000 NA
ATOM      5  C3  UNL     1      -9.114  74.438 -35.700  0.00  0.00    +0.000 C 
ATOM      6  C4  UNL     1     -10.436  74.309 -35.444  0.00  0.00    +0.000 C 
ATOM      7  C5  UNL     1     -11.271  75.419 -35.471  0.00  0.00    +0.000 C 
ATOM      8  O1  UNL     1     -12.500  75.303 -35.212  0.00  0.00    +0.000 OA
ATOM      9  N3  UNL     1     -10.717  76.642 -35.778  0.00  0.00    +0.000 N 
ATOM     10  C6  UNL     1      -9.355  76.753 -36.007  0.00  0.00    +0.000 C 
ATOM     11  O2  UNL     1      -8.845  77.889 -36.220  0.00  0.00    +0.000 OA
ATOM     12  N4  UNL     1      -8.544  75.636 -35.997  0.00  0.00    +0.000 N 
ATOM     13  C7  UNL     1      -7.096  75.747 -36.215  0.00  0.00    +0.000 C 
ATOM     14  C8  UNL     1     -11.561  77.848 -35.779  0.00  0.00    +0.000 C 
ENDROOT
TORSDOF 0
ENDMDL
MODEL 4
REMARK VINA RESULT:      -3.9      2.659      4.050
REMARK  Name = .\Caffeine.pdb
REMARK  3 active torsions:
REMARK  status: ('A' for Active; 'I' for Inactive)
REMARK    1  A    between atoms: C1_1  and  N1_2
REMARK    2  A    between atoms: N3_9  and  C8_14
REMARK    3  A    between atoms: N4_12  and  C7_13
REMARK                            x       y       z     vdW  Elec       q    Type
REMARK                         _______ _______ _______ _____ _____    ______ ____
ROOT
ATOM      1  C1  UNL     1     -11.066  75.840 -40.059  0.00  0.00    +0.000 C 
ATOM      2  N1  UNL     1     -11.231  75.021 -38.861  0.00  0.00    +0.000 N 
ATOM      3  C2  UNL     1     -12.394  74.546 -38.352  0.00  0.00    +0.000 C 
ATOM      4  N2  UNL     1     -12.223  73.828 -37.212  0.00  0.00    +0.000 NA
ATOM      5  C3  UNL     1     -10.889  73.871 -37.026  0.00  0.00    +0.000 C 
ATOM      6  C4  UNL     1     -10.290  74.586 -38.008  0.00  0.00    +0.000 C 
ATOM      7  C5  UNL     1      -8.916  74.781 -37.999  0.00  0.00    +0.000 C 
ATOM      8  O1  UNL     1      -8.360  75.465 -38.902  0.00  0.00    +0.000 OA
ATOM      9  N3  UNL     1      -8.185  74.218 -36.977  0.00  0.00    +0.000 N 
ATOM     10  C6  UNL     1      -8.823  73.516 -35.967  0.00  0.00    +0.000 C 
ATOM     11  O2  UNL     1      -8.152  73.062 -34.998  0.00  0.00    +0.000 OA
ATOM     12  N4  UNL     1     -10.187  73.314 -36.003  0.00  0.00    +0.000 N 
ATOM     13  C7  UNL     1     -10.877  72.592 -34.926  0.00  0.00    +0.000 C 
ATOM     14  C8  UNL     1      -6.730  74.435 -36.912  0.00  0.00    +0.000 C 
ENDROOT
TORSDOF 0
ENDMDL
MODEL 5
REMARK VINA RESULT:      -3.8      2.632      3.552
REMARK  Name = .\Caffeine.pdb
REMARK  3 active torsions:
REMARK  status: ('A' for Active; 'I' for Inactive)
REMARK    1  A    between atoms: C1_1  and  N1_2
REMARK    2  A    between atoms: N3_9  and  C8_14
REMARK    3  A    between atoms: N4_12  and  C7_13
REMARK                            x       y       z     vdW  Elec       q    Type
REMARK                         _______ _______ _______ _____ _____    ______ ____
ROOT
ATOM      1  C1  UNL     1      -6.315  75.339 -36.803  0.00  0.00    +0.000 C 
ATOM      2  N1  UNL     1      -7.534  75.279 -37.603  0.00  0.00    +0.000 N 
ATOM      3  C2  UNL     1      -7.755  75.876 -38.800  0.00  0.00    +0.000 C 
ATOM      4  N2  UNL     1      -9.001  75.648 -39.288  0.00  0.00    +0.000 NA
ATOM      5  C3  UNL     1      -9.559  74.872 -38.338  0.00  0.00    +0.000 C 
ATOM      6  C4  UNL     1      -8.688  74.650 -37.326  0.00  0.00    +0.000 C 
ATOM      7  C5  UNL     1      -9.065  73.894 -36.225  0.00  0.00    +0.000 C 
ATOM      8  O1  UNL     1      -8.260  73.704 -35.272  0.00  0.00    +0.000 OA
ATOM      9  N3  UNL     1     -10.338  73.369 -36.200  0.00  0.00    +0.000 N 
ATOM     10  C6  UNL     1     -11.222  73.635 -37.234  0.00  0.00    +0.000 C 
ATOM     11  O2  UNL     1     -12.409  73.206 -37.170  0.00  0.00    +0.000 OA
ATOM     12  N4  UNL     1     -10.824  74.371 -38.331  0.00  0.00    +0.000 N 
ATOM     13  C7  UNL     1     -11.760  74.677 -39.420  0.00  0.00    +0.000 C 
ATOM     14  C8  UNL     1     -10.788  72.594 -35.032  0.00  0.00    +0.000 C 
ENDROOT
TORSDOF 0
ENDMDL
MODEL 6
REMARK VINA RESULT:      -3.8      2.581      4.634
REMARK  Name = .\Caffeine.pdb
REMARK  3 active torsions:
REMARK  status: ('A' for Active; 'I' for Inactive)
REMARK    1  A    between atoms: C1_1  and  N1_2
REMARK    2  A    between atoms: N3_9  and  C8_14
REMARK    3  A    between atoms: N4_12  and  C7_13
REMARK                            x       y       z     vdW  Elec       q    Type
REMARK                         _______ _______ _______ _____ _____    ______ ____
ROOT
ATOM      1  C1  UNL     1     -11.126  72.475 -34.674  0.00  0.00    +0.000 C 
ATOM      2  N1  UNL     1     -11.172  73.231 -35.921  0.00  0.00    +0.000 N 
ATOM      3  C2  UNL     1     -12.266  73.485 -36.681  0.00  0.00    +0.000 C 
ATOM      4  N2  UNL     1     -11.984  74.203 -37.799  0.00  0.00    +0.000 NA
ATOM      5  C3  UNL     1     -10.652  74.394 -37.706  0.00  0.00    +0.000 C 
ATOM      6  C4  UNL     1     -10.161  73.812 -36.587  0.00  0.00    +0.000 C 
ATOM      7  C5  UNL     1      -8.803  73.863 -36.305  0.00  0.00    +0.000 C 
ATOM      8  O1  UNL     1      -8.341  73.304 -35.273  0.00  0.00    +0.000 OA
ATOM      9  N3  UNL     1      -7.980  74.530 -37.185  0.00  0.00    +0.000 N 
ATOM     10  C6  UNL     1      -8.502  75.091 -38.339  0.00  0.00    +0.000 C 
ATOM     11  O2  UNL     1      -7.729  75.641 -39.175  0.00  0.00    +0.000 OA
ATOM     12  N4  UNL     1      -9.857  75.049 -38.593  0.00  0.00    +0.000 N 
ATOM     13  C7  UNL     1     -10.417  75.621 -39.825  0.00  0.00    +0.000 C 
ATOM     14  C8  UNL     1      -6.528  74.573 -36.941  0.00  0.00    +0.000 C 
ENDROOT
TORSDOF 0
ENDMDL
MODEL 7
REMARK VINA RESULT:      -3.7      2.149      2.215
REMARK  Name = .\Caffeine.pdb
REMARK  3 active torsions:
REMARK  status: ('A' for Active; 'I' for Inactive)
REMARK    1  A    between atoms: C1_1  and  N1_2
REMARK    2  A    between atoms: N3_9  and  C8_14
REMARK    3  A    between atoms: N4_12  and  C7_13
REMARK                            x       y       z     vdW  Elec       q    Type
REMARK                         _______ _______ _______ _____ _____    ______ ____
ROOT
ATOM      1  C1  UNL     1      -7.972  73.902 -35.918  0.00  0.00    +0.000 C 
ATOM      2  N1  UNL     1      -9.326  73.358 -35.906  0.00  0.00    +0.000 N 
ATOM      3  C2  UNL     1      -9.761  72.266 -35.229  0.00  0.00    +0.000 C 
ATOM      4  N2  UNL     1     -11.076  72.000 -35.434  0.00  0.00    +0.000 NA
ATOM      5  C3  UNL     1     -11.455  72.984 -36.275  0.00  0.00    +0.000 C 
ATOM      6  C4  UNL     1     -10.412  73.797 -36.563  0.00  0.00    +0.000 C 
ATOM      7  C5  UNL     1     -10.571  74.866 -37.435  0.00  0.00    +0.000 C 
ATOM      8  O1  UNL     1      -9.594  75.611 -37.720  0.00  0.00    +0.000 OA
ATOM      9  N3  UNL     1     -11.817  75.079 -37.982  0.00  0.00    +0.000 N 
ATOM     10  C6  UNL     1     -12.861  74.215 -37.696  0.00  0.00    +0.000 C 
ATOM     11  O2  UNL     1     -13.982  74.378 -38.256  0.00  0.00    +0.000 OA
ATOM     12  N4  UNL     1     -12.691  73.170 -36.811  0.00  0.00    +0.000 N 
ATOM     13  C7  UNL     1     -13.785  72.236 -36.519  0.00  0.00    +0.000 C 
ATOM     14  C8  UNL     1     -12.017  76.178 -38.941  0.00  0.00    +0.000 C 
ENDROOT
TORSDOF 0
ENDMDL
MODEL 8
REMARK VINA RESULT:      -3.7      2.425      4.173
REMARK  Name = .\Caffeine.pdb
REMARK  3 active torsions:
REMARK  status: ('A' for Active; 'I' for Inactive)
REMARK    1  A    between atoms: C1_1  and  N1_2
REMARK    2  A    between atoms: N3_9  and  C8_14
REMARK    3  A    between atoms: N4_12  and  C7_13
REMARK                            x       y       z     vdW  Elec       q    Type
REMARK                         _______ _______ _______ _____ _____    ______ ____
ROOT
ATOM      1  C1  UNL     1     -13.522  72.336 -36.378  0.00  0.00    +0.000 C 
ATOM      2  N1  UNL     1     -12.122  72.680 -36.147  0.00  0.00    +0.000 N 
ATOM      3  C2  UNL     1     -11.350  72.298 -35.100  0.00  0.00    +0.000 C 
ATOM      4  N2  UNL     1     -10.089  72.798 -35.157  0.00  0.00    +0.000 NA
ATOM      5  C3  UNL     1     -10.101  73.515 -36.298  0.00  0.00    +0.000 C 
ATOM      6  C4  UNL     1     -11.315  73.451 -36.893  0.00  0.00    +0.000 C 
ATOM      7  C5  UNL     1     -11.558  74.141 -38.073  0.00  0.00    +0.000 C 
ATOM      8  O1  UNL     1     -12.696  74.099 -38.617  0.00  0.00    +0.000 OA
ATOM      9  N3  UNL     1     -10.531  74.876 -38.622  0.00  0.00    +0.000 N 
ATOM     10  C6  UNL     1      -9.306  74.950 -37.978  0.00  0.00    +0.000 C 
ATOM     11  O2  UNL     1      -8.391  75.681 -38.453  0.00  0.00    +0.000 OA
ATOM     12  N4  UNL     1      -9.075  74.241 -36.818  0.00  0.00    +0.000 N 
ATOM     13  C7  UNL     1      -7.788  74.332 -36.116  0.00  0.00    +0.000 C 
ATOM     14  C8  UNL     1     -10.761  75.652 -39.851  0.00  0.00    +0.000 C 
ENDROOT
TORSDOF 0
ENDMDL
MODEL 9
REMARK VINA RESULT:      -3.6      2.805      4.969
REMARK  Name = .\Caffeine.pdb
REMARK  3 active torsions:
REMARK  status: ('A' for Active; 'I' for Inactive)
REMARK    1  A    between atoms: C1_1  and  N1_2
REMARK    2  A    between atoms: N3_9  and  C8_14
REMARK    3  A    between atoms: N4_12  and  C7_13
REMARK                            x       y       z     vdW  Elec       q    Type
REMARK                         _______ _______ _______ _____ _____    ______ ____
ROOT
ATOM      1  C1  UNL     1     -14.404  71.501 -35.030  0.00  0.00    +0.000 C 
ATOM      2  N1  UNL     1     -14.008  72.284 -36.196  0.00  0.00    +0.000 N 
ATOM      3  C2  UNL     1     -14.761  72.558 -37.290  0.00  0.00    +0.000 C 
ATOM      4  N2  UNL     1     -14.103  73.299 -38.218  0.00  0.00    +0.000 NA
ATOM      5  C3  UNL     1     -12.892  73.482 -37.654  0.00  0.00    +0.000 C 
ATOM      6  C4  UNL     1     -12.828  72.875 -36.447  0.00  0.00    +0.000 C 
ATOM      7  C5  UNL     1     -11.659  72.915 -35.699  0.00  0.00    +0.000 C 
ATOM      8  O1  UNL     1     -11.592  72.331 -34.583  0.00  0.00    +0.000 OA
ATOM      9  N3  UNL     1     -10.579  73.597 -36.215  0.00  0.00    +0.000 N 
ATOM     10  C6  UNL     1     -10.659  74.184 -37.467  0.00  0.00    +0.000 C 
ATOM     11  O2  UNL     1      -9.643  74.749 -37.961  0.00  0.00    +0.000 OA
ATOM     12  N4  UNL     1     -11.836  74.154 -38.187  0.00  0.00    +0.000 N 
ATOM     13  C7  UNL     1     -11.924  74.753 -39.524  0.00  0.00    +0.000 C 
ATOM     14  C8  UNL     1      -9.309  73.629 -35.470  0.00  0.00    +0.000 C 
ENDROOT
TORSDOF 0
ENDMDL
