MODEL 1
REMARK VINA RESULT:      -4.0      0.000      0.000
REMARK  Name = .\Caffeine.pdb
REMARK  3 active torsions:
REMARK  status: ('A' for Active; 'I' for Inactive)
REMARK    1  A    between atoms: C1_1  and  N1_2
REMARK    2  A    between atoms: N3_9  and  C8_14
REMARK    3  A    between atoms: N4_12  and  C7_13
REMARK                            x       y       z     vdW  Elec       q    Type
REMARK                         _______ _______ _______ _____ _____    ______ ____
ROOT
ATOM      1  C1  UNL     1     -19.463  73.473  91.844  0.00  0.00    +0.000 C 
ATOM      2  N1  UNL     1     -20.130  72.623  92.826  0.00  0.00    +0.000 N 
ATOM      3  C2  UNL     1     -20.516  71.334  92.661  0.00  0.00    +0.000 C 
ATOM      4  N2  UNL     1     -21.132  70.817  93.756  0.00  0.00    +0.000 NA
ATOM      5  C3  UNL     1     -21.113  71.847  94.626  0.00  0.00    +0.000 C 
ATOM      6  C4  UNL     1     -20.519  72.930  94.074  0.00  0.00    +0.000 C 
ATOM      7  C5  UNL     1     -20.414  74.116  94.789  0.00  0.00    +0.000 C 
ATOM      8  O1  UNL     1     -19.878  75.133  94.267  0.00  0.00    +0.000 OA
ATOM      9  N3  UNL     1     -20.918  74.151  96.070  0.00  0.00    +0.000 N 
ATOM     10  C6  UNL     1     -21.549  73.039  96.601  0.00  0.00    +0.000 C 
ATOM     11  O2  UNL     1     -22.069  73.101  97.751  0.00  0.00    +0.000 OA
ATOM     12  N4  UNL     1     -21.626  71.862  95.885  0.00  0.00    +0.000 N 
ATOM     13  C7  UNL     1     -22.313  70.684  96.431  0.00  0.00    +0.000 C 
ATOM     14  C8  UNL     1     -20.861  75.402  96.845  0.00  0.00    +0.000 C 
ENDROOT
TORSDOF 0
ENDMDL
MODEL 2
REMARK VINA RESULT:      -4.0      1.464      3.022
REMARK  Name = .\Caffeine.pdb
REMARK  3 active torsions:
REMARK  status: ('A' for Active; 'I' for Inactive)
REMARK    1  A    between atoms: C1_1  and  N1_2
REMARK    2  A    between atoms: N3_9  and  C8_14
REMARK    3  A    between atoms: N4_12  and  C7_13
REMARK                            x       y       z     vdW  Elec       q    Type
REMARK                         _______ _______ _______ _____ _____    ______ ____
ROOT
ATOM      1  C1  UNL     1     -19.623  72.622  91.892  0.00  0.00    +0.000 C 
ATOM      2  N1  UNL     1     -19.866  73.477  93.049  0.00  0.00    +0.000 N 
ATOM      3  C2  UNL     1     -19.461  74.761  93.214  0.00  0.00    +0.000 C 
ATOM      4  N2  UNL     1     -19.826  75.286  94.412  0.00  0.00    +0.000 NA
ATOM      5  C3  UNL     1     -20.487  74.267  94.998  0.00  0.00    +0.000 C 
ATOM      6  C4  UNL     1     -20.512  73.182  94.189  0.00  0.00    +0.000 C 
ATOM      7  C5  UNL     1     -21.121  72.006  94.606  0.00  0.00    +0.000 C 
ATOM      8  O1  UNL     1     -21.126  70.988  93.861  0.00  0.00    +0.000 OA
ATOM      9  N3  UNL     1     -21.707  71.983  95.852  0.00  0.00    +0.000 N 
ATOM     10  C6  UNL     1     -21.643  73.096  96.674  0.00  0.00    +0.000 C 
ATOM     11  O2  UNL     1     -22.123  73.043  97.841  0.00  0.00    +0.000 OA
ATOM     12  N4  UNL     1     -21.051  74.263  96.236  0.00  0.00    +0.000 N 
ATOM     13  C7  UNL     1     -20.958  75.441  97.108  0.00  0.00    +0.000 C 
ATOM     14  C8  UNL     1     -22.329  70.743  96.345  0.00  0.00    +0.000 C 
ENDROOT
TORSDOF 0
ENDMDL
MODEL 3
REMARK VINA RESULT:      -3.9      1.908      3.432
REMARK  Name = .\Caffeine.pdb
REMARK  3 active torsions:
REMARK  status: ('A' for Active; 'I' for Inactive)
REMARK    1  A    between atoms: C1_1  and  N1_2
REMARK    2  A    between atoms: N3_9  and  C8_14
REMARK    3  A    between atoms: N4_12  and  C7_13
REMARK                            x       y       z     vdW  Elec       q    Type
REMARK                         _______ _______ _______ _____ _____    ______ ____
ROOT
ATOM      1  C1  UNL     1     -20.164  76.110  92.069  0.00  0.00    +0.000 C 
ATOM      2  N1  UNL     1     -20.404  75.770  93.468  0.00  0.00    +0.000 N 
ATOM      3  C2  UNL     1     -20.491  76.630  94.513  0.00  0.00    +0.000 C 
ATOM      4  N2  UNL     1     -20.702  76.006  95.701  0.00  0.00    +0.000 NA
ATOM      5  C3  UNL     1     -20.747  74.704  95.353  0.00  0.00    +0.000 C 
ATOM      6  C4  UNL     1     -20.566  74.557  94.020  0.00  0.00    +0.000 C 
ATOM      7  C5  UNL     1     -20.549  73.292  93.447  0.00  0.00    +0.000 C 
ATOM      8  O1  UNL     1     -20.360  73.153  92.208  0.00  0.00    +0.000 OA
ATOM      9  N3  UNL     1     -20.734  72.203  94.269  0.00  0.00    +0.000 N 
ATOM     10  C6  UNL     1     -20.888  72.377  95.635  0.00  0.00    +0.000 C 
ATOM     11  O2  UNL     1     -20.989  71.369  96.389  0.00  0.00    +0.000 OA
ATOM     12  N4  UNL     1     -20.923  73.642  96.184  0.00  0.00    +0.000 N 
ATOM     13  C7  UNL     1     -21.061  73.837  97.633  0.00  0.00    +0.000 C 
ATOM     14  C8  UNL     1     -20.685  70.844  93.705  0.00  0.00    +0.000 C 
ENDROOT
TORSDOF 0
ENDMDL
MODEL 4
REMARK VINA RESULT:      -3.9      1.680      2.470
REMARK  Name = .\Caffeine.pdb
REMARK  3 active torsions:
REMARK  status: ('A' for Active; 'I' for Inactive)
REMARK    1  A    between atoms: C1_1  and  N1_2
REMARK    2  A    between atoms: N3_9  and  C8_14
REMARK    3  A    between atoms: N4_12  and  C7_13
REMARK                            x       y       z     vdW  Elec       q    Type
REMARK                         _______ _______ _______ _____ _____    ______ ____
ROOT
ATOM      1  C1  UNL     1     -19.911  76.897  93.038  0.00  0.00    +0.000 C 
ATOM      2  N1  UNL     1     -20.036  75.449  92.907  0.00  0.00    +0.000 N 
ATOM      3  C2  UNL     1     -19.921  74.719  91.770  0.00  0.00    +0.000 C 
ATOM      4  N2  UNL     1     -20.108  73.389  91.969  0.00  0.00    +0.000 NA
ATOM      5  C3  UNL     1     -20.344  73.313  93.294  0.00  0.00    +0.000 C 
ATOM      6  C4  UNL     1     -20.305  74.541  93.860  0.00  0.00    +0.000 C 
ATOM      7  C5  UNL     1     -20.548  74.700  95.218  0.00  0.00    +0.000 C 
ATOM      8  O1  UNL     1     -20.533  75.847  95.742  0.00  0.00    +0.000 OA
ATOM      9  N3  UNL     1     -20.814  73.575  95.967  0.00  0.00    +0.000 N 
ATOM     10  C6  UNL     1     -20.878  72.332  95.359  0.00  0.00    +0.000 C 
ATOM     11  O2  UNL     1     -21.190  71.315  96.042  0.00  0.00    +0.000 OA
ATOM     12  N4  UNL     1     -20.613  72.190  94.013  0.00  0.00    +0.000 N 
ATOM     13  C7  UNL     1     -20.702  70.880  93.355  0.00  0.00    +0.000 C 
ATOM     14  C8  UNL     1     -21.115  73.706  97.402  0.00  0.00    +0.000 C 
ENDROOT
TORSDOF 0
ENDMDL
MODEL 5
REMARK VINA RESULT:      -3.8      1.717      2.804
REMARK  Name = .\Caffeine.pdb
REMARK  3 active torsions:
REMARK  status: ('A' for Active; 'I' for Inactive)
REMARK    1  A    between atoms: C1_1  and  N1_2
REMARK    2  A    between atoms: N3_9  and  C8_14
REMARK    3  A    between atoms: N4_12  and  C7_13
REMARK                            x       y       z     vdW  Elec       q    Type
REMARK                         _______ _______ _______ _____ _____    ______ ____
ROOT
ATOM      1  C1  UNL     1     -20.842  71.220  93.364  0.00  0.00    +0.000 C 
ATOM      2  N1  UNL     1     -20.982  71.838  94.679  0.00  0.00    +0.000 N 
ATOM      3  C2  UNL     1     -21.295  71.217  95.843  0.00  0.00    +0.000 C 
ATOM      4  N2  UNL     1     -21.369  72.068  96.898  0.00  0.00    +0.000 NA
ATOM      5  C3  UNL     1     -21.084  73.263  96.342  0.00  0.00    +0.000 C 
ATOM      6  C4  UNL     1     -20.854  73.132  95.015  0.00  0.00    +0.000 C 
ATOM      7  C5  UNL     1     -20.566  74.245  94.236  0.00  0.00    +0.000 C 
ATOM      8  O1  UNL     1     -20.373  74.126  92.995  0.00  0.00    +0.000 OA
ATOM      9  N3  UNL     1     -20.508  75.474  94.854  0.00  0.00    +0.000 N 
ATOM     10  C6  UNL     1     -20.777  75.587  96.208  0.00  0.00    +0.000 C 
ATOM     11  O2  UNL     1     -20.789  76.727  96.753  0.00  0.00    +0.000 OA
ATOM     12  N4  UNL     1     -21.041  74.468  96.971  0.00  0.00    +0.000 N 
ATOM     13  C7  UNL     1     -21.349  74.580  98.402  0.00  0.00    +0.000 C 
ATOM     14  C8  UNL     1     -20.244  76.683  94.056  0.00  0.00    +0.000 C 
ENDROOT
TORSDOF 0
ENDMDL
MODEL 6
REMARK VINA RESULT:      -3.8      1.762      3.907
REMARK  Name = .\Caffeine.pdb
REMARK  3 active torsions:
REMARK  status: ('A' for Active; 'I' for Inactive)
REMARK    1  A    between atoms: C1_1  and  N1_2
REMARK    2  A    between atoms: N3_9  and  C8_14
REMARK    3  A    between atoms: N4_12  and  C7_13
REMARK                            x       y       z     vdW  Elec       q    Type
REMARK                         _______ _______ _______ _____ _____    ______ ____
ROOT
ATOM      1  C1  UNL     1     -20.846  75.658  96.774  0.00  0.00    +0.000 C 
ATOM      2  N1  UNL     1     -20.871  74.391  96.049  0.00  0.00    +0.000 N 
ATOM      3  C2  UNL     1     -21.238  73.180  96.536  0.00  0.00    +0.000 C 
ATOM      4  N2  UNL     1     -21.136  72.184  95.619  0.00  0.00    +0.000 NA
ATOM      5  C3  UNL     1     -20.687  72.828  94.523  0.00  0.00    +0.000 C 
ATOM      6  C4  UNL     1     -20.524  74.148  94.775  0.00  0.00    +0.000 C 
ATOM      7  C5  UNL     1     -20.044  74.999  93.789  0.00  0.00    +0.000 C 
ATOM      8  O1  UNL     1     -19.872  76.226  94.030  0.00  0.00    +0.000 OA
ATOM      9  N3  UNL     1     -19.754  74.466  92.553  0.00  0.00    +0.000 N 
ATOM     10  C6  UNL     1     -19.901  73.107  92.328  0.00  0.00    +0.000 C 
ATOM     11  O2  UNL     1     -19.568  72.616  91.212  0.00  0.00    +0.000 OA
ATOM     12  N4  UNL     1     -20.399  72.279  93.313  0.00  0.00    +0.000 N 
ATOM     13  C7  UNL     1     -20.537  70.833  93.092  0.00  0.00    +0.000 C 
ATOM     14  C8  UNL     1     -19.206  75.329  91.493  0.00  0.00    +0.000 C 
ENDROOT
TORSDOF 0
ENDMDL
MODEL 7
REMARK VINA RESULT:      -3.8      1.785      4.759
REMARK  Name = .\Caffeine.pdb
REMARK  3 active torsions:
REMARK  status: ('A' for Active; 'I' for Inactive)
REMARK    1  A    between atoms: C1_1  and  N1_2
REMARK    2  A    between atoms: N3_9  and  C8_14
REMARK    3  A    between atoms: N4_12  and  C7_13
REMARK                            x       y       z     vdW  Elec       q    Type
REMARK                         _______ _______ _______ _____ _____    ______ ____
ROOT
ATOM      1  C1  UNL     1     -21.215  73.748  97.805  0.00  0.00    +0.000 C 
ATOM      2  N1  UNL     1     -20.897  74.385  96.530  0.00  0.00    +0.000 N 
ATOM      3  C2  UNL     1     -20.755  75.713  96.295  0.00  0.00    +0.000 C 
ATOM      4  N2  UNL     1     -20.477  75.998  94.997  0.00  0.00    +0.000 NA
ATOM      5  C3  UNL     1     -20.447  74.779  94.421  0.00  0.00    +0.000 C 
ATOM      6  C4  UNL     1     -20.701  73.812  95.332  0.00  0.00    +0.000 C 
ATOM      7  C5  UNL     1     -20.745  72.478  94.949  0.00  0.00    +0.000 C 
ATOM      8  O1  UNL     1     -21.002  71.577  95.794  0.00  0.00    +0.000 OA
ATOM      9  N3  UNL     1     -20.511  72.172  93.627  0.00  0.00    +0.000 N 
ATOM     10  C6  UNL     1     -20.283  73.182  92.708  0.00  0.00    +0.000 C 
ATOM     11  O2  UNL     1     -20.137  72.898  91.485  0.00  0.00    +0.000 OA
ATOM     12  N4  UNL     1     -20.222  74.501  93.109  0.00  0.00    +0.000 N 
ATOM     13  C7  UNL     1     -20.004  75.581  92.138  0.00  0.00    +0.000 C 
ATOM     14  C8  UNL     1     -20.587  70.773  93.175  0.00  0.00    +0.000 C 
ENDROOT
TORSDOF 0
ENDMDL
MODEL 8
REMARK VINA RESULT:      -3.7      1.653      3.203
REMARK  Name = .\Caffeine.pdb
REMARK  3 active torsions:
REMARK  status: ('A' for Active; 'I' for Inactive)
REMARK    1  A    between atoms: C1_1  and  N1_2
REMARK    2  A    between atoms: N3_9  and  C8_14
REMARK    3  A    between atoms: N4_12  and  C7_13
REMARK                            x       y       z     vdW  Elec       q    Type
REMARK                         _______ _______ _______ _____ _____    ______ ____
ROOT
ATOM      1  C1  UNL     1     -20.527  70.838  93.092  0.00  0.00    +0.000 C 
ATOM      2  N1  UNL     1     -20.434  72.295  93.073  0.00  0.00    +0.000 N 
ATOM      3  C2  UNL     1     -20.154  73.081  92.004  0.00  0.00    +0.000 C 
ATOM      4  N2  UNL     1     -20.120  74.404  92.309  0.00  0.00    +0.000 NA
ATOM      5  C3  UNL     1     -20.397  74.415  93.629  0.00  0.00    +0.000 C 
ATOM      6  C4  UNL     1     -20.583  73.157  94.092  0.00  0.00    +0.000 C 
ATOM      7  C5  UNL     1     -20.855  72.934  95.435  0.00  0.00    +0.000 C 
ATOM      8  O1  UNL     1     -21.007  71.760  95.871  0.00  0.00    +0.000 OA
ATOM      9  N3  UNL     1     -20.942  74.024  96.272  0.00  0.00    +0.000 N 
ATOM     10  C6  UNL     1     -20.718  75.300  95.780  0.00  0.00    +0.000 C 
ATOM     11  O2  UNL     1     -20.733  76.287  96.568  0.00  0.00    +0.000 OA
ATOM     12  N4  UNL     1     -20.470  75.506  94.439  0.00  0.00    +0.000 N 
ATOM     13  C7  UNL     1     -20.209  76.851  93.912  0.00  0.00    +0.000 C 
ATOM     14  C8  UNL     1     -21.190  73.826  97.709  0.00  0.00    +0.000 C 
ENDROOT
TORSDOF 0
ENDMDL
MODEL 9
REMARK VINA RESULT:      -3.7      1.715      3.815
REMARK  Name = .\Caffeine.pdb
REMARK  3 active torsions:
REMARK  status: ('A' for Active; 'I' for Inactive)
REMARK    1  A    between atoms: C1_1  and  N1_2
REMARK    2  A    between atoms: N3_9  and  C8_14
REMARK    3  A    between atoms: N4_12  and  C7_13
REMARK                            x       y       z     vdW  Elec       q    Type
REMARK                         _______ _______ _______ _____ _____    ______ ____
ROOT
ATOM      1  C1  UNL     1     -20.780  76.482  97.560  0.00  0.00    +0.000 C 
ATOM      2  N1  UNL     1     -21.248  75.103  97.461  0.00  0.00    +0.000 N 
ATOM      3  C2  UNL     1     -21.880  74.385  98.421  0.00  0.00    +0.000 C 
ATOM      4  N2  UNL     1     -22.175  73.117  98.032  0.00  0.00    +0.000 NA
ATOM      5  C3  UNL     1     -21.698  73.071  96.772  0.00  0.00    +0.000 C 
ATOM      6  C4  UNL     1     -21.140  74.254  96.426  0.00  0.00    +0.000 C 
ATOM      7  C5  UNL     1     -20.561  74.420  95.175  0.00  0.00    +0.000 C 
ATOM      8  O1  UNL     1     -20.022  75.517  94.859  0.00  0.00    +0.000 OA
ATOM      9  N3  UNL     1     -20.584  73.357  94.300  0.00  0.00    +0.000 N 
ATOM     10  C6  UNL     1     -21.134  72.147  94.688  0.00  0.00    +0.000 C 
ATOM     11  O2  UNL     1     -21.090  71.157  93.904  0.00  0.00    +0.000 OA
ATOM     12  N4  UNL     1     -21.724  72.005  95.928  0.00  0.00    +0.000 N 
ATOM     13  C7  UNL     1     -22.289  70.719  96.358  0.00  0.00    +0.000 C 
ATOM     14  C8  UNL     1     -19.946  73.482  92.979  0.00  0.00    +0.000 C 
ENDROOT
TORSDOF 0
ENDMDL
