MODEL 1
REMARK VINA RESULT:      -4.3      0.000      0.000
REMARK  Name = .\Caffeine.pdb
REMARK  3 active torsions:
REMARK  status: ('A' for Active; 'I' for Inactive)
REMARK    1  A    between atoms: C1_1  and  N1_2
REMARK    2  A    between atoms: N3_9  and  C8_14
REMARK    3  A    between atoms: N4_12  and  C7_13
REMARK                            x       y       z     vdW  Elec       q    Type
REMARK                         _______ _______ _______ _____ _____    ______ ____
ROOT
ATOM      1  C1  UNL     1     -33.344  48.202   7.076  0.00  0.00    +0.000 C 
ATOM      2  N1  UNL     1     -32.685  49.293   7.789  0.00  0.00    +0.000 N 
ATOM      3  C2  UNL     1     -32.851  49.634   9.090  0.00  0.00    +0.000 C 
ATOM      4  N2  UNL     1     -32.111  50.712   9.457  0.00  0.00    +0.000 NA
ATOM      5  C3  UNL     1     -31.464  51.034   8.319  0.00  0.00    +0.000 C 
ATOM      6  C4  UNL     1     -31.806  50.191   7.317  0.00  0.00    +0.000 C 
ATOM      7  C5  UNL     1     -31.275  50.357   6.045  0.00  0.00    +0.000 C 
ATOM      8  O1  UNL     1     -31.610  49.584   5.105  0.00  0.00    +0.000 OA
ATOM      9  N3  UNL     1     -30.387  51.389   5.839  0.00  0.00    +0.000 N 
ATOM     10  C6  UNL     1     -30.076  52.257   6.873  0.00  0.00    +0.000 C 
ATOM     11  O2  UNL     1     -29.313  53.242   6.657  0.00  0.00    +0.000 OA
ATOM     12  N4  UNL     1     -30.596  52.065   8.136  0.00  0.00    +0.000 N 
ATOM     13  C7  UNL     1     -30.290  52.994   9.232  0.00  0.00    +0.000 C 
ATOM     14  C8  UNL     1     -29.833  51.621   4.495  0.00  0.00    +0.000 C 
ENDROOT
TORSDOF 0
ENDMDL
MODEL 2
REMARK VINA RESULT:      -4.0      1.026      3.424
REMARK  Name = .\Caffeine.pdb
REMARK  3 active torsions:
REMARK  status: ('A' for Active; 'I' for Inactive)
REMARK    1  A    between atoms: C1_1  and  N1_2
REMARK    2  A    between atoms: N3_9  and  C8_14
REMARK    3  A    between atoms: N4_12  and  C7_13
REMARK                            x       y       z     vdW  Elec       q    Type
REMARK                         _______ _______ _______ _____ _____    ______ ____
ROOT
ATOM      1  C1  UNL     1     -29.176  52.796  10.134  0.00  0.00    +0.000 C 
ATOM      2  N1  UNL     1     -30.125  51.815   9.617  0.00  0.00    +0.000 N 
ATOM      3  C2  UNL     1     -30.953  51.021  10.341  0.00  0.00    +0.000 C 
ATOM      4  N2  UNL     1     -31.706  50.194   9.571  0.00  0.00    +0.000 NA
ATOM      5  C3  UNL     1     -31.314  50.508   8.319  0.00  0.00    +0.000 C 
ATOM      6  C4  UNL     1     -30.367  51.474   8.341  0.00  0.00    +0.000 C 
ATOM      7  C5  UNL     1     -29.801  51.932   7.159  0.00  0.00    +0.000 C 
ATOM      8  O1  UNL     1     -28.902  52.817   7.180  0.00  0.00    +0.000 OA
ATOM      9  N3  UNL     1     -30.240  51.387   5.973  0.00  0.00    +0.000 N 
ATOM     10  C6  UNL     1     -31.189  50.379   5.978  0.00  0.00    +0.000 C 
ATOM     11  O2  UNL     1     -31.536  49.837   4.891  0.00  0.00    +0.000 OA
ATOM     12  N4  UNL     1     -31.757  49.950   7.161  0.00  0.00    +0.000 N 
ATOM     13  C7  UNL     1     -32.747  48.865   7.179  0.00  0.00    +0.000 C 
ATOM     14  C8  UNL     1     -29.637  51.819   4.701  0.00  0.00    +0.000 C 
ENDROOT
TORSDOF 0
ENDMDL
MODEL 3
REMARK VINA RESULT:      -3.9      1.590      3.644
REMARK  Name = .\Caffeine.pdb
REMARK  3 active torsions:
REMARK  status: ('A' for Active; 'I' for Inactive)
REMARK    1  A    between atoms: C1_1  and  N1_2
REMARK    2  A    between atoms: N3_9  and  C8_14
REMARK    3  A    between atoms: N4_12  and  C7_13
REMARK                            x       y       z     vdW  Elec       q    Type
REMARK                         _______ _______ _______ _____ _____    ______ ____
ROOT
ATOM      1  C1  UNL     1     -29.805  51.621   4.301  0.00  0.00    +0.000 C 
ATOM      2  N1  UNL     1     -29.913  51.814   5.744  0.00  0.00    +0.000 N 
ATOM      3  C2  UNL     1     -29.202  52.679   6.508  0.00  0.00    +0.000 C 
ATOM      4  N2  UNL     1     -29.519  52.611   7.827  0.00  0.00    +0.000 NA
ATOM      5  C3  UNL     1     -30.472  51.658   7.858  0.00  0.00    +0.000 C 
ATOM      6  C4  UNL     1     -30.710  51.176   6.617  0.00  0.00    +0.000 C 
ATOM      7  C5  UNL     1     -31.641  50.164   6.421  0.00  0.00    +0.000 C 
ATOM      8  O1  UNL     1     -31.848  49.699   5.266  0.00  0.00    +0.000 OA
ATOM      9  N3  UNL     1     -32.318  49.680   7.518  0.00  0.00    +0.000 N 
ATOM     10  C6  UNL     1     -32.035  50.170   8.783  0.00  0.00    +0.000 C 
ATOM     11  O2  UNL     1     -32.612  49.673   9.791  0.00  0.00    +0.000 OA
ATOM     12  N4  UNL     1     -31.123  51.190   8.957  0.00  0.00    +0.000 N 
ATOM     13  C7  UNL     1     -30.799  51.699  10.296  0.00  0.00    +0.000 C 
ATOM     14  C8  UNL     1     -33.284  48.581   7.356  0.00  0.00    +0.000 C 
ENDROOT
TORSDOF 0
ENDMDL
MODEL 4
REMARK VINA RESULT:      -3.5      1.645      3.916
REMARK  Name = .\Caffeine.pdb
REMARK  3 active torsions:
REMARK  status: ('A' for Active; 'I' for Inactive)
REMARK    1  A    between atoms: C1_1  and  N1_2
REMARK    2  A    between atoms: N3_9  and  C8_14
REMARK    3  A    between atoms: N4_12  and  C7_13
REMARK                            x       y       z     vdW  Elec       q    Type
REMARK                         _______ _______ _______ _____ _____    ______ ____
ROOT
ATOM      1  C1  UNL     1     -29.610  51.902   4.345  0.00  0.00    +0.000 C 
ATOM      2  N1  UNL     1     -30.435  51.112   5.254  0.00  0.00    +0.000 N 
ATOM      3  C2  UNL     1     -31.328  50.150   4.917  0.00  0.00    +0.000 C 
ATOM      4  N2  UNL     1     -31.957  49.606   5.991  0.00  0.00    +0.000 NA
ATOM      5  C3  UNL     1     -31.412  50.273   7.028  0.00  0.00    +0.000 C 
ATOM      6  C4  UNL     1     -30.503  51.177   6.593  0.00  0.00    +0.000 C 
ATOM      7  C5  UNL     1     -29.836  51.995   7.495  0.00  0.00    +0.000 C 
ATOM      8  O1  UNL     1     -29.005  52.852   7.089  0.00  0.00    +0.000 OA
ATOM      9  N3  UNL     1     -30.116  51.850   8.836  0.00  0.00    +0.000 N 
ATOM     10  C6  UNL     1     -31.072  50.939   9.254  0.00  0.00    +0.000 C 
ATOM     11  O2  UNL     1     -31.371  50.860  10.479  0.00  0.00    +0.000 OA
ATOM     12  N4  UNL     1     -31.710  50.119   8.346  0.00  0.00    +0.000 N 
ATOM     13  C7  UNL     1     -32.741  49.166   8.776  0.00  0.00    +0.000 C 
ATOM     14  C8  UNL     1     -29.458  52.725   9.820  0.00  0.00    +0.000 C 
ENDROOT
TORSDOF 0
ENDMDL
MODEL 5
REMARK VINA RESULT:      -3.5      1.742      3.098
REMARK  Name = .\Caffeine.pdb
REMARK  3 active torsions:
REMARK  status: ('A' for Active; 'I' for Inactive)
REMARK    1  A    between atoms: C1_1  and  N1_2
REMARK    2  A    between atoms: N3_9  and  C8_14
REMARK    3  A    between atoms: N4_12  and  C7_13
REMARK                            x       y       z     vdW  Elec       q    Type
REMARK                         _______ _______ _______ _____ _____    ______ ____
ROOT
ATOM      1  C1  UNL     1     -32.724  48.756   9.663  0.00  0.00    +0.000 C 
ATOM      2  N1  UNL     1     -32.204  49.376   8.449  0.00  0.00    +0.000 N 
ATOM      3  C2  UNL     1     -32.604  49.137   7.175  0.00  0.00    +0.000 C 
ATOM      4  N2  UNL     1     -31.913  49.859   6.255  0.00  0.00    +0.000 NA
ATOM      5  C3  UNL     1     -31.055  50.571   7.014  0.00  0.00    +0.000 C 
ATOM      6  C4  UNL     1     -31.222  50.284   8.326  0.00  0.00    +0.000 C 
ATOM      7  C5  UNL     1     -30.422  50.887   9.286  0.00  0.00    +0.000 C 
ATOM      8  O1  UNL     1     -30.563  50.604  10.508  0.00  0.00    +0.000 OA
ATOM      9  N3  UNL     1     -29.469  51.789   8.867  0.00  0.00    +0.000 N 
ATOM     10  C6  UNL     1     -29.297  52.043   7.516  0.00  0.00    +0.000 C 
ATOM     11  O2  UNL     1     -28.375  52.820   7.137  0.00  0.00    +0.000 OA
ATOM     12  N4  UNL     1     -30.115  51.451   6.577  0.00  0.00    +0.000 N 
ATOM     13  C7  UNL     1     -29.925  51.697   5.141  0.00  0.00    +0.000 C 
ATOM     14  C8  UNL     1     -28.575  52.420   9.852  0.00  0.00    +0.000 C 
ENDROOT
TORSDOF 0
ENDMDL
MODEL 6
REMARK VINA RESULT:      -3.2      1.787      3.716
REMARK  Name = .\Caffeine.pdb
REMARK  3 active torsions:
REMARK  status: ('A' for Active; 'I' for Inactive)
REMARK    1  A    between atoms: C1_1  and  N1_2
REMARK    2  A    between atoms: N3_9  and  C8_14
REMARK    3  A    between atoms: N4_12  and  C7_13
REMARK                            x       y       z     vdW  Elec       q    Type
REMARK                         _______ _______ _______ _____ _____    ______ ____
ROOT
ATOM      1  C1  UNL     1     -27.675  52.187   8.430  0.00  0.00    +0.000 C 
ATOM      2  N1  UNL     1     -28.815  51.404   8.897  0.00  0.00    +0.000 N 
ATOM      3  C2  UNL     1     -29.089  51.045  10.176  0.00  0.00    +0.000 C 
ATOM      4  N2  UNL     1     -30.217  50.297  10.289  0.00  0.00    +0.000 NA
ATOM      5  C3  UNL     1     -30.646  50.204   9.014  0.00  0.00    +0.000 C 
ATOM      6  C4  UNL     1     -29.810  50.861   8.177  0.00  0.00    +0.000 C 
ATOM      7  C5  UNL     1     -30.048  50.873   6.809  0.00  0.00    +0.000 C 
ATOM      8  O1  UNL     1     -29.257  51.467   6.027  0.00  0.00    +0.000 OA
ATOM      9  N3  UNL     1     -31.160  50.211   6.337  0.00  0.00    +0.000 N 
ATOM     10  C6  UNL     1     -31.984  49.521   7.210  0.00  0.00    +0.000 C 
ATOM     11  O2  UNL     1     -32.963  48.860   6.760  0.00  0.00    +0.000 OA
ATOM     12  N4  UNL     1     -31.744  49.537   8.569  0.00  0.00    +0.000 N 
ATOM     13  C7  UNL     1     -32.598  48.789   9.500  0.00  0.00    +0.000 C 
ATOM     14  C8  UNL     1     -31.425  50.168   4.889  0.00  0.00    +0.000 C 
ENDROOT
TORSDOF 0
ENDMDL
MODEL 7
REMARK VINA RESULT:      -3.2      2.384      3.494
REMARK  Name = .\Caffeine.pdb
REMARK  3 active torsions:
REMARK  status: ('A' for Active; 'I' for Inactive)
REMARK    1  A    between atoms: C1_1  and  N1_2
REMARK    2  A    between atoms: N3_9  and  C8_14
REMARK    3  A    between atoms: N4_12  and  C7_13
REMARK                            x       y       z     vdW  Elec       q    Type
REMARK                         _______ _______ _______ _____ _____    ______ ____
ROOT
ATOM      1  C1  UNL     1     -29.082  49.677  10.291  0.00  0.00    +0.000 C 
ATOM      2  N1  UNL     1     -28.751  50.709   9.313  0.00  0.00    +0.000 N 
ATOM      3  C2  UNL     1     -27.886  51.741   9.476  0.00  0.00    +0.000 C 
ATOM      4  N2  UNL     1     -27.807  52.547   8.387  0.00  0.00    +0.000 NA
ATOM      5  C3  UNL     1     -28.666  51.971   7.522  0.00  0.00    +0.000 C 
ATOM      6  C4  UNL     1     -29.236  50.874   8.072  0.00  0.00    +0.000 C 
ATOM      7  C5  UNL     1     -30.176  50.138   7.363  0.00  0.00    +0.000 C 
ATOM      8  O1  UNL     1     -30.724  49.127   7.882  0.00  0.00    +0.000 OA
ATOM      9  N3  UNL     1     -30.498  50.549   6.088  0.00  0.00    +0.000 N 
ATOM     10  C6  UNL     1     -29.924  51.693   5.559  0.00  0.00    +0.000 C 
ATOM     11  O2  UNL     1     -30.275  52.101   4.416  0.00  0.00    +0.000 OA
ATOM     12  N4  UNL     1     -28.975  52.400   6.269  0.00  0.00    +0.000 N 
ATOM     13  C7  UNL     1     -28.378  53.626   5.726  0.00  0.00    +0.000 C 
ATOM     14  C8  UNL     1     -31.519  49.818   5.319  0.00  0.00    +0.000 C 
ENDROOT
TORSDOF 0
ENDMDL
MODEL 8
REMARK VINA RESULT:      -3.2      2.381      4.527
REMARK  Name = .\Caffeine.pdb
REMARK  3 active torsions:
REMARK  status: ('A' for Active; 'I' for Inactive)
REMARK    1  A    between atoms: C1_1  and  N1_2
REMARK    2  A    between atoms: N3_9  and  C8_14
REMARK    3  A    between atoms: N4_12  and  C7_13
REMARK                            x       y       z     vdW  Elec       q    Type
REMARK                         _______ _______ _______ _____ _____    ______ ____
ROOT
ATOM      1  C1  UNL     1     -27.713  52.074   8.248  0.00  0.00    +0.000 C 
ATOM      2  N1  UNL     1     -29.122  51.916   7.900  0.00  0.00    +0.000 N 
ATOM      3  C2  UNL     1     -29.901  52.803   7.233  0.00  0.00    +0.000 C 
ATOM      4  N2  UNL     1     -31.181  52.376   7.077  0.00  0.00    +0.000 NA
ATOM      5  C3  UNL     1     -31.171  51.169   7.678  0.00  0.00    +0.000 C 
ATOM      6  C4  UNL     1     -29.944  50.890   8.174  0.00  0.00    +0.000 C 
ATOM      7  C5  UNL     1     -29.713  49.704   8.859  0.00  0.00    +0.000 C 
ATOM      8  O1  UNL     1     -28.574  49.453   9.340  0.00  0.00    +0.000 OA
ATOM      9  N3  UNL     1     -30.761  48.822   9.004  0.00  0.00    +0.000 N 
ATOM     10  C6  UNL     1     -32.016  49.144   8.513  0.00  0.00    +0.000 C 
ATOM     11  O2  UNL     1     -32.987  48.360   8.710  0.00  0.00    +0.000 OA
ATOM     12  N4  UNL     1     -32.222  50.317   7.817  0.00  0.00    +0.000 N 
ATOM     13  C7  UNL     1     -33.553  50.678   7.314  0.00  0.00    +0.000 C 
ATOM     14  C8  UNL     1     -30.566  47.572   9.757  0.00  0.00    +0.000 C 
ENDROOT
TORSDOF 0
ENDMDL
MODEL 9
REMARK VINA RESULT:      -3.1      2.231      2.871
REMARK  Name = .\Caffeine.pdb
REMARK  3 active torsions:
REMARK  status: ('A' for Active; 'I' for Inactive)
REMARK    1  A    between atoms: C1_1  and  N1_2
REMARK    2  A    between atoms: N3_9  and  C8_14
REMARK    3  A    between atoms: N4_12  and  C7_13
REMARK                            x       y       z     vdW  Elec       q    Type
REMARK                         _______ _______ _______ _____ _____    ______ ____
ROOT
ATOM      1  C1  UNL     1     -30.310  47.677  10.466  0.00  0.00    +0.000 C 
ATOM      2  N1  UNL     1     -31.100  48.744   9.861  0.00  0.00    +0.000 N 
ATOM      3  C2  UNL     1     -32.451  48.803   9.761  0.00  0.00    +0.000 C 
ATOM      4  N2  UNL     1     -32.892  49.919   9.126  0.00  0.00    +0.000 NA
ATOM      5  C3  UNL     1     -31.747  50.568   8.830  0.00  0.00    +0.000 C 
ATOM      6  C4  UNL     1     -30.673  49.869   9.264  0.00  0.00    +0.000 C 
ATOM      7  C5  UNL     1     -29.387  50.343   9.040  0.00  0.00    +0.000 C 
ATOM      8  O1  UNL     1     -28.385  49.681   9.426  0.00  0.00    +0.000 OA
ATOM      9  N3  UNL     1     -29.241  51.542   8.380  0.00  0.00    +0.000 N 
ATOM     10  C6  UNL     1     -30.355  52.225   7.919  0.00  0.00    +0.000 C 
ATOM     11  O2  UNL     1     -30.208  53.290   7.256  0.00  0.00    +0.000 OA
ATOM     12  N4  UNL     1     -31.626  51.750   8.169  0.00  0.00    +0.000 N 
ATOM     13  C7  UNL     1     -32.812  52.454   7.664  0.00  0.00    +0.000 C 
ATOM     14  C8  UNL     1     -27.893  52.059   8.090  0.00  0.00    +0.000 C 
ENDROOT
TORSDOF 0
ENDMDL
