MODEL 1
REMARK VINA RESULT:      -4.0      0.000      0.000
REMARK  Name = .\Caffeine.pdb
REMARK  3 active torsions:
REMARK  status: ('A' for Active; 'I' for Inactive)
REMARK    1  A    between atoms: C1_1  and  N1_2
REMARK    2  A    between atoms: N3_9  and  C8_14
REMARK    3  A    between atoms: N4_12  and  C7_13
REMARK                            x       y       z     vdW  Elec       q    Type
REMARK                         _______ _______ _______ _____ _____    ______ ____
ROOT
ATOM      1  C1  UNL     1     -19.521  74.002  51.088  0.00  0.00    +0.000 C 
ATOM      2  N1  UNL     1     -18.556  73.683  50.040  0.00  0.00    +0.000 N 
ATOM      3  C2  UNL     1     -17.849  74.562  49.288  0.00  0.00    +0.000 C 
ATOM      4  N2  UNL     1     -17.042  73.958  48.378  0.00  0.00    +0.000 NA
ATOM      5  C3  UNL     1     -17.273  72.647  48.596  0.00  0.00    +0.000 C 
ATOM      6  C4  UNL     1     -18.179  72.477  49.586  0.00  0.00    +0.000 C 
ATOM      7  C5  UNL     1     -18.586  71.203  49.958  0.00  0.00    +0.000 C 
ATOM      8  O1  UNL     1     -19.447  71.044  50.866  0.00  0.00    +0.000 OA
ATOM      9  N3  UNL     1     -18.032  70.126  49.302  0.00  0.00    +0.000 N 
ATOM     10  C6  UNL     1     -17.128  70.326  48.271  0.00  0.00    +0.000 C 
ATOM     11  O2  UNL     1     -16.677  69.335  47.630  0.00  0.00    +0.000 OA
ATOM     12  N4  UNL     1     -16.720  71.599  47.929  0.00  0.00    +0.000 N 
ATOM     13  C7  UNL     1     -15.780  71.823  46.823  0.00  0.00    +0.000 C 
ATOM     14  C8  UNL     1     -18.466  68.760  49.641  0.00  0.00    +0.000 C 
ENDROOT
TORSDOF 0
ENDMDL
MODEL 2
REMARK VINA RESULT:      -3.7      1.527      2.999
REMARK  Name = .\Caffeine.pdb
REMARK  3 active torsions:
REMARK  status: ('A' for Active; 'I' for Inactive)
REMARK    1  A    between atoms: C1_1  and  N1_2
REMARK    2  A    between atoms: N3_9  and  C8_14
REMARK    3  A    between atoms: N4_12  and  C7_13
REMARK                            x       y       z     vdW  Elec       q    Type
REMARK                         _______ _______ _______ _____ _____    ______ ____
ROOT
ATOM      1  C1  UNL     1     -18.181  74.740  50.337  0.00  0.00    +0.000 C 
ATOM      2  N1  UNL     1     -18.477  73.313  50.269  0.00  0.00    +0.000 N 
ATOM      3  C2  UNL     1     -19.299  72.610  51.088  0.00  0.00    +0.000 C 
ATOM      4  N2  UNL     1     -19.354  71.288  50.781  0.00  0.00    +0.000 NA
ATOM      5  C3  UNL     1     -18.526  71.190  49.722  0.00  0.00    +0.000 C 
ATOM      6  C4  UNL     1     -17.997  72.396  49.413  0.00  0.00    +0.000 C 
ATOM      7  C5  UNL     1     -17.093  72.522  48.366  0.00  0.00    +0.000 C 
ATOM      8  O1  UNL     1     -16.583  73.643  48.091  0.00  0.00    +0.000 OA
ATOM      9  N3  UNL     1     -16.766  71.392  47.650  0.00  0.00    +0.000 N 
ATOM     10  C6  UNL     1     -17.298  70.164  48.004  0.00  0.00    +0.000 C 
ATOM     11  O2  UNL     1     -16.939  69.122  47.385  0.00  0.00    +0.000 OA
ATOM     12  N4  UNL     1     -18.211  70.060  49.034  0.00  0.00    +0.000 N 
ATOM     13  C7  UNL     1     -18.762  68.759  49.432  0.00  0.00    +0.000 C 
ATOM     14  C8  UNL     1     -15.782  71.478  46.558  0.00  0.00    +0.000 C 
ENDROOT
TORSDOF 0
ENDMDL
MODEL 3
REMARK VINA RESULT:      -3.2      1.704      4.426
REMARK  Name = .\Caffeine.pdb
REMARK  3 active torsions:
REMARK  status: ('A' for Active; 'I' for Inactive)
REMARK    1  A    between atoms: C1_1  and  N1_2
REMARK    2  A    between atoms: N3_9  and  C8_14
REMARK    3  A    between atoms: N4_12  and  C7_13
REMARK                            x       y       z     vdW  Elec       q    Type
REMARK                         _______ _______ _______ _____ _____    ______ ____
ROOT
ATOM      1  C1  UNL     1     -15.575  71.760  46.352  0.00  0.00    +0.000 C 
ATOM      2  N1  UNL     1     -16.585  71.100  47.173  0.00  0.00    +0.000 N 
ATOM      3  C2  UNL     1     -17.005  69.814  47.073  0.00  0.00    +0.000 C 
ATOM      4  N2  UNL     1     -17.975  69.499  47.970  0.00  0.00    +0.000 NA
ATOM      5  C3  UNL     1     -18.146  70.653  48.647  0.00  0.00    +0.000 C 
ATOM      6  C4  UNL     1     -17.320  71.614  48.172  0.00  0.00    +0.000 C 
ATOM      7  C5  UNL     1     -17.347  72.894  48.710  0.00  0.00    +0.000 C 
ATOM      8  O1  UNL     1     -16.592  73.796  48.254  0.00  0.00    +0.000 OA
ATOM      9  N3  UNL     1     -18.224  73.149  49.740  0.00  0.00    +0.000 N 
ATOM     10  C6  UNL     1     -19.081  72.157  50.188  0.00  0.00    +0.000 C 
ATOM     11  O2  UNL     1     -19.929  72.419  51.087  0.00  0.00    +0.000 OA
ATOM     12  N4  UNL     1     -19.026  70.885  49.657  0.00  0.00    +0.000 N 
ATOM     13  C7  UNL     1     -19.945  69.833  50.109  0.00  0.00    +0.000 C 
ATOM     14  C8  UNL     1     -18.310  74.504  50.310  0.00  0.00    +0.000 C 
ENDROOT
TORSDOF 0
ENDMDL
MODEL 4
REMARK VINA RESULT:      -3.2      3.138      4.783
REMARK  Name = .\Caffeine.pdb
REMARK  3 active torsions:
REMARK  status: ('A' for Active; 'I' for Inactive)
REMARK    1  A    between atoms: C1_1  and  N1_2
REMARK    2  A    between atoms: N3_9  and  C8_14
REMARK    3  A    between atoms: N4_12  and  C7_13
REMARK                            x       y       z     vdW  Elec       q    Type
REMARK                         _______ _______ _______ _____ _____    ______ ____
ROOT
ATOM      1  C1  UNL     1     -19.503  68.887  43.322  0.00  0.00    +0.000 C 
ATOM      2  N1  UNL     1     -18.405  69.657  43.897  0.00  0.00    +0.000 N 
ATOM      3  C2  UNL     1     -17.365  70.218  43.232  0.00  0.00    +0.000 C 
ATOM      4  N2  UNL     1     -16.491  70.859  44.051  0.00  0.00    +0.000 NA
ATOM      5  C3  UNL     1     -17.034  70.676  45.272  0.00  0.00    +0.000 C 
ATOM      6  C4  UNL     1     -18.176  69.955  45.187  0.00  0.00    +0.000 C 
ATOM      7  C5  UNL     1     -18.889  69.626  46.332  0.00  0.00    +0.000 C 
ATOM      8  O1  UNL     1     -19.942  68.937  46.255  0.00  0.00    +0.000 OA
ATOM      9  N3  UNL     1     -18.408  70.064  47.546  0.00  0.00    +0.000 N 
ATOM     10  C6  UNL     1     -17.220  70.774  47.611  0.00  0.00    +0.000 C 
ATOM     11  O2  UNL     1     -16.751  71.112  48.734  0.00  0.00    +0.000 OA
ATOM     12  N4  UNL     1     -16.536  71.110  46.461  0.00  0.00    +0.000 N 
ATOM     13  C7  UNL     1     -15.264  71.843  46.520  0.00  0.00    +0.000 C 
ATOM     14  C8  UNL     1     -19.114  69.702  48.787  0.00  0.00    +0.000 C 
ENDROOT
TORSDOF 0
ENDMDL
MODEL 5
REMARK VINA RESULT:      -3.0      2.387      3.808
REMARK  Name = .\Caffeine.pdb
REMARK  3 active torsions:
REMARK  status: ('A' for Active; 'I' for Inactive)
REMARK    1  A    between atoms: C1_1  and  N1_2
REMARK    2  A    between atoms: N3_9  and  C8_14
REMARK    3  A    between atoms: N4_12  and  C7_13
REMARK                            x       y       z     vdW  Elec       q    Type
REMARK                         _______ _______ _______ _____ _____    ______ ____
ROOT
ATOM      1  C1  UNL     1     -18.237  71.923  50.267  0.00  0.00    +0.000 C 
ATOM      2  N1  UNL     1     -18.672  71.305  49.019  0.00  0.00    +0.000 N 
ATOM      3  C2  UNL     1     -19.847  70.667  48.790  0.00  0.00    +0.000 C 
ATOM      4  N2  UNL     1     -19.952  70.179  47.527  0.00  0.00    +0.000 NA
ATOM      5  C3  UNL     1     -18.782  70.545  46.965  0.00  0.00    +0.000 C 
ATOM      6  C4  UNL     1     -18.012  71.215  47.853  0.00  0.00    +0.000 C 
ATOM      7  C5  UNL     1     -16.748  71.664  47.492  0.00  0.00    +0.000 C 
ATOM      8  O1  UNL     1     -16.021  72.270  48.325  0.00  0.00    +0.000 OA
ATOM      9  N3  UNL     1     -16.313  71.418  46.208  0.00  0.00    +0.000 N 
ATOM     10  C6  UNL     1     -17.107  70.704  45.327  0.00  0.00    +0.000 C 
ATOM     11  O2  UNL     1     -16.672  70.424  44.174  0.00  0.00    +0.000 OA
ATOM     12  N4  UNL     1     -18.369  70.284  45.696  0.00  0.00    +0.000 N 
ATOM     13  C7  UNL     1     -19.210  69.506  44.777  0.00  0.00    +0.000 C 
ATOM     14  C8  UNL     1     -14.964  71.844  45.799  0.00  0.00    +0.000 C 
ENDROOT
TORSDOF 0
ENDMDL
MODEL 6
REMARK VINA RESULT:      -2.6      3.329      5.079
REMARK  Name = .\Caffeine.pdb
REMARK  3 active torsions:
REMARK  status: ('A' for Active; 'I' for Inactive)
REMARK    1  A    between atoms: C1_1  and  N1_2
REMARK    2  A    between atoms: N3_9  and  C8_14
REMARK    3  A    between atoms: N4_12  and  C7_13
REMARK                            x       y       z     vdW  Elec       q    Type
REMARK                         _______ _______ _______ _____ _____    ______ ____
ROOT
ATOM      1  C1  UNL     1     -14.446  72.116  45.837  0.00  0.00    +0.000 C 
ATOM      2  N1  UNL     1     -15.740  71.714  46.380  0.00  0.00    +0.000 N 
ATOM      3  C2  UNL     1     -16.213  71.960  47.627  0.00  0.00    +0.000 C 
ATOM      4  N2  UNL     1     -17.449  71.439  47.841  0.00  0.00    +0.000 NA
ATOM      5  C3  UNL     1     -17.736  70.851  46.661  0.00  0.00    +0.000 C 
ATOM      6  C4  UNL     1     -16.716  71.010  45.786  0.00  0.00    +0.000 C 
ATOM      7  C5  UNL     1     -16.789  70.460  44.513  0.00  0.00    +0.000 C 
ATOM      8  O1  UNL     1     -15.830  70.590  43.703  0.00  0.00    +0.000 OA
ATOM      9  N3  UNL     1     -17.927  69.765  44.168  0.00  0.00    +0.000 N 
ATOM     10  C6  UNL     1     -18.944  69.590  45.092  0.00  0.00    +0.000 C 
ATOM     11  O2  UNL     1     -19.954  68.894  44.790  0.00  0.00    +0.000 OA
ATOM     12  N4  UNL     1     -18.864  70.162  46.345  0.00  0.00    +0.000 N 
ATOM     13  C7  UNL     1     -19.927  69.963  47.340  0.00  0.00    +0.000 C 
ATOM     14  C8  UNL     1     -18.026  69.134  42.842  0.00  0.00    +0.000 C 
ENDROOT
TORSDOF 0
ENDMDL
MODEL 7
REMARK VINA RESULT:      -2.5      2.704      4.385
REMARK  Name = .\Caffeine.pdb
REMARK  3 active torsions:
REMARK  status: ('A' for Active; 'I' for Inactive)
REMARK    1  A    between atoms: C1_1  and  N1_2
REMARK    2  A    between atoms: N3_9  and  C8_14
REMARK    3  A    between atoms: N4_12  and  C7_13
REMARK                            x       y       z     vdW  Elec       q    Type
REMARK                         _______ _______ _______ _____ _____    ______ ____
ROOT
ATOM      1  C1  UNL     1     -14.795  72.131  45.891  0.00  0.00    +0.000 C 
ATOM      2  N1  UNL     1     -15.954  71.305  45.566  0.00  0.00    +0.000 N 
ATOM      3  C2  UNL     1     -16.370  70.933  44.331  0.00  0.00    +0.000 C 
ATOM      4  N2  UNL     1     -17.497  70.176  44.354  0.00  0.00    +0.000 NA
ATOM      5  C3  UNL     1     -17.773  70.085  45.671  0.00  0.00    +0.000 C 
ATOM      6  C4  UNL     1     -16.855  70.761  46.400  0.00  0.00    +0.000 C 
ATOM      7  C5  UNL     1     -16.961  70.822  47.784  0.00  0.00    +0.000 C 
ATOM      8  O1  UNL     1     -16.117  71.470  48.462  0.00  0.00    +0.000 OA
ATOM      9  N3  UNL     1     -18.012  70.168  48.385  0.00  0.00    +0.000 N 
ATOM     10  C6  UNL     1     -18.956  69.508  47.615  0.00  0.00    +0.000 C 
ATOM     11  O2  UNL     1     -19.954  68.969  48.171  0.00  0.00    +0.000 OA
ATOM     12  N4  UNL     1     -18.824  69.440  46.243  0.00  0.00    +0.000 N 
ATOM     13  C7  UNL     1     -19.831  68.763  45.416  0.00  0.00    +0.000 C 
ATOM     14  C8  UNL     1     -18.181  70.242  49.846  0.00  0.00    +0.000 C 
ENDROOT
TORSDOF 0
ENDMDL
MODEL 8
REMARK VINA RESULT:      -2.4      2.237      3.950
REMARK  Name = .\Caffeine.pdb
REMARK  3 active torsions:
REMARK  status: ('A' for Active; 'I' for Inactive)
REMARK    1  A    between atoms: C1_1  and  N1_2
REMARK    2  A    between atoms: N3_9  and  C8_14
REMARK    3  A    between atoms: N4_12  and  C7_13
REMARK                            x       y       z     vdW  Elec       q    Type
REMARK                         _______ _______ _______ _____ _____    ______ ____
ROOT
ATOM      1  C1  UNL     1     -18.767  68.783  44.825  0.00  0.00    +0.000 C 
ATOM      2  N1  UNL     1     -18.123  69.900  45.508  0.00  0.00    +0.000 N 
ATOM      3  C2  UNL     1     -17.175  70.728  45.003  0.00  0.00    +0.000 C 
ATOM      4  N2  UNL     1     -16.756  71.665  45.893  0.00  0.00    +0.000 NA
ATOM      5  C3  UNL     1     -17.492  71.389  46.988  0.00  0.00    +0.000 C 
ATOM      6  C4  UNL     1     -18.309  70.334  46.765  0.00  0.00    +0.000 C 
ATOM      7  C5  UNL     1     -19.140  69.860  47.772  0.00  0.00    +0.000 C 
ATOM      8  O1  UNL     1     -19.886  68.863  47.571  0.00  0.00    +0.000 OA
ATOM      9  N3  UNL     1     -19.116  70.502  48.991  0.00  0.00    +0.000 N 
ATOM     10  C6  UNL     1     -18.250  71.561  49.204  0.00  0.00    +0.000 C 
ATOM     11  O2  UNL     1     -18.186  72.100  50.345  0.00  0.00    +0.000 OA
ATOM     12  N4  UNL     1     -17.446  72.032  48.186  0.00  0.00    +0.000 N 
ATOM     13  C7  UNL     1     -16.508  73.139  48.409  0.00  0.00    +0.000 C 
ATOM     14  C8  UNL     1     -19.954  70.006  50.095  0.00  0.00    +0.000 C 
ENDROOT
TORSDOF 0
ENDMDL
MODEL 9
REMARK VINA RESULT:      -2.4      2.918      5.380
REMARK  Name = .\Caffeine.pdb
REMARK  3 active torsions:
REMARK  status: ('A' for Active; 'I' for Inactive)
REMARK    1  A    between atoms: C1_1  and  N1_2
REMARK    2  A    between atoms: N3_9  and  C8_14
REMARK    3  A    between atoms: N4_12  and  C7_13
REMARK                            x       y       z     vdW  Elec       q    Type
REMARK                         _______ _______ _______ _____ _____    ______ ____
ROOT
ATOM      1  C1  UNL     1     -16.904  70.217  43.084  0.00  0.00    +0.000 C 
ATOM      2  N1  UNL     1     -17.732  69.815  44.216  0.00  0.00    +0.000 N 
ATOM      3  C2  UNL     1     -18.736  68.903  44.210  0.00  0.00    +0.000 C 
ATOM      4  N2  UNL     1     -19.334  68.760  45.421  0.00  0.00    +0.000 NA
ATOM      5  C3  UNL     1     -18.654  69.629  46.197  0.00  0.00    +0.000 C 
ATOM      6  C4  UNL     1     -17.698  70.264  45.482  0.00  0.00    +0.000 C 
ATOM      7  C5  UNL     1     -16.892  71.225  46.079  0.00  0.00    +0.000 C 
ATOM      8  O1  UNL     1     -16.014  71.832  45.407  0.00  0.00    +0.000 OA
ATOM      9  N3  UNL     1     -17.087  71.498  47.414  0.00  0.00    +0.000 N 
ATOM     10  C6  UNL     1     -18.093  70.857  48.118  0.00  0.00    +0.000 C 
ATOM     11  O2  UNL     1     -18.309  71.163  49.325  0.00  0.00    +0.000 OA
ATOM     12  N4  UNL     1     -18.870  69.890  47.514  0.00  0.00    +0.000 N 
ATOM     13  C7  UNL     1     -19.954  69.220  48.245  0.00  0.00    +0.000 C 
ATOM     14  C8  UNL     1     -16.280  72.538  48.074  0.00  0.00    +0.000 C 
ENDROOT
TORSDOF 0
ENDMDL
