MODEL 1
REMARK VINA RESULT:      -5.1      0.000      0.000
REMARK  Name = .\Caffeine.pdb
REMARK  3 active torsions:
REMARK  status: ('A' for Active; 'I' for Inactive)
REMARK    1  A    between atoms: C1_1  and  N1_2
REMARK    2  A    between atoms: N3_9  and  C8_14
REMARK    3  A    between atoms: N4_12  and  C7_13
REMARK                            x       y       z     vdW  Elec       q    Type
REMARK                         _______ _______ _______ _____ _____    ______ ____
ROOT
ATOM      1  C1  UNL     1     -12.153  77.386 103.472  0.00  0.00    +0.000 C 
ATOM      2  N1  UNL     1     -13.255  76.576 103.982  0.00  0.00    +0.000 N 
ATOM      3  C2  UNL     1     -13.827  76.656 105.209  0.00  0.00    +0.000 C 
ATOM      4  N2  UNL     1     -14.823  75.752 105.394  0.00  0.00    +0.000 NA
ATOM      5  C3  UNL     1     -14.856  75.096 104.216  0.00  0.00    +0.000 C 
ATOM      6  C4  UNL     1     -13.919  75.582 103.370  0.00  0.00    +0.000 C 
ATOM      7  C5  UNL     1     -13.759  75.032 102.105  0.00  0.00    +0.000 C 
ATOM      8  O1  UNL     1     -12.871  75.471 101.323  0.00  0.00    +0.000 OA
ATOM      9  N3  UNL     1     -14.586  73.994 101.737  0.00  0.00    +0.000 N 
ATOM     10  C6  UNL     1     -15.517  73.494 102.632  0.00  0.00    +0.000 C 
ATOM     11  O2  UNL     1     -16.224  72.498 102.311  0.00  0.00    +0.000 OA
ATOM     12  N4  UNL     1     -15.677  74.066 103.877  0.00  0.00    +0.000 N 
ATOM     13  C7  UNL     1     -16.645  73.529 104.842  0.00  0.00    +0.000 C 
ATOM     14  C8  UNL     1     -14.421  73.359 100.419  0.00  0.00    +0.000 C 
ENDROOT
TORSDOF 0
ENDMDL
MODEL 2
REMARK VINA RESULT:      -4.9      2.665      3.578
REMARK  Name = .\Caffeine.pdb
REMARK  3 active torsions:
REMARK  status: ('A' for Active; 'I' for Inactive)
REMARK    1  A    between atoms: C1_1  and  N1_2
REMARK    2  A    between atoms: N3_9  and  C8_14
REMARK    3  A    between atoms: N4_12  and  C7_13
REMARK                            x       y       z     vdW  Elec       q    Type
REMARK                         _______ _______ _______ _____ _____    ______ ____
ROOT
ATOM      1  C1  UNL     1     -16.000  79.618 102.315  0.00  0.00    +0.000 C 
ATOM      2  N1  UNL     1     -15.195  78.418 102.115  0.00  0.00    +0.000 N 
ATOM      3  C2  UNL     1     -13.935  78.355 101.618  0.00  0.00    +0.000 C 
ATOM      4  N2  UNL     1     -13.457  77.086 101.535  0.00  0.00    +0.000 NA
ATOM      5  C3  UNL     1     -14.481  76.347 102.009  0.00  0.00    +0.000 C 
ATOM      6  C4  UNL     1     -15.524  77.138 102.354  0.00  0.00    +0.000 C 
ATOM      7  C5  UNL     1     -16.698  76.582 102.843  0.00  0.00    +0.000 C 
ATOM      8  O1  UNL     1     -17.678  77.317 103.146  0.00  0.00    +0.000 OA
ATOM      9  N3  UNL     1     -16.763  75.213 102.977  0.00  0.00    +0.000 N 
ATOM     10  C6  UNL     1     -15.694  74.422 102.589  0.00  0.00    +0.000 C 
ATOM     11  O2  UNL     1     -15.788  73.164 102.652  0.00  0.00    +0.000 OA
ATOM     12  N4  UNL     1     -14.527  74.993 102.124  0.00  0.00    +0.000 N 
ATOM     13  C7  UNL     1     -13.396  74.163 101.688  0.00  0.00    +0.000 C 
ATOM     14  C8  UNL     1     -18.005  74.582 103.456  0.00  0.00    +0.000 C 
ENDROOT
TORSDOF 0
ENDMDL
MODEL 3
REMARK VINA RESULT:      -4.9      2.554      4.523
REMARK  Name = .\Caffeine.pdb
REMARK  3 active torsions:
REMARK  status: ('A' for Active; 'I' for Inactive)
REMARK    1  A    between atoms: C1_1  and  N1_2
REMARK    2  A    between atoms: N3_9  and  C8_14
REMARK    3  A    between atoms: N4_12  and  C7_13
REMARK                            x       y       z     vdW  Elec       q    Type
REMARK                         _______ _______ _______ _____ _____    ______ ____
ROOT
ATOM      1  C1  UNL     1     -18.874  74.638 103.874  0.00  0.00    +0.000 C 
ATOM      2  N1  UNL     1     -17.521  74.413 103.375  0.00  0.00    +0.000 N 
ATOM      3  C2  UNL     1     -16.845  73.238 103.350  0.00  0.00    +0.000 C 
ATOM      4  N2  UNL     1     -15.592  73.354 102.841  0.00  0.00    +0.000 NA
ATOM      5  C3  UNL     1     -15.509  74.667 102.541  0.00  0.00    +0.000 C 
ATOM      6  C4  UNL     1     -16.658  75.305 102.861  0.00  0.00    +0.000 C 
ATOM      7  C5  UNL     1     -16.784  76.673 102.660  0.00  0.00    +0.000 C 
ATOM      8  O1  UNL     1     -17.847  77.273 102.978  0.00  0.00    +0.000 OA
ATOM      9  N3  UNL     1     -15.716  77.352 102.117  0.00  0.00    +0.000 N 
ATOM     10  C6  UNL     1     -14.539  76.681 101.825  0.00  0.00    +0.000 C 
ATOM     11  O2  UNL     1     -13.541  77.324 101.391  0.00  0.00    +0.000 OA
ATOM     12  N4  UNL     1     -14.439  75.318 102.012  0.00  0.00    +0.000 N 
ATOM     13  C7  UNL     1     -13.189  74.602 101.728  0.00  0.00    +0.000 C 
ATOM     14  C8  UNL     1     -15.796  78.809 101.924  0.00  0.00    +0.000 C 
ENDROOT
TORSDOF 0
ENDMDL
MODEL 4
REMARK VINA RESULT:      -4.9      1.587      3.800
REMARK  Name = .\Caffeine.pdb
REMARK  3 active torsions:
REMARK  status: ('A' for Active; 'I' for Inactive)
REMARK    1  A    between atoms: C1_1  and  N1_2
REMARK    2  A    between atoms: N3_9  and  C8_14
REMARK    3  A    between atoms: N4_12  and  C7_13
REMARK                            x       y       z     vdW  Elec       q    Type
REMARK                         _______ _______ _______ _____ _____    ______ ____
ROOT
ATOM      1  C1  UNL     1     -15.509  73.986 106.782  0.00  0.00    +0.000 C 
ATOM      2  N1  UNL     1     -15.509  73.748 105.342  0.00  0.00    +0.000 N 
ATOM      3  C2  UNL     1     -16.202  72.794 104.672  0.00  0.00    +0.000 C 
ATOM      4  N2  UNL     1     -15.978  72.813 103.333  0.00  0.00    +0.000 NA
ATOM      5  C3  UNL     1     -15.108  73.833 103.188  0.00  0.00    +0.000 C 
ATOM      6  C4  UNL     1     -14.821  74.393 104.385  0.00  0.00    +0.000 C 
ATOM      7  C5  UNL     1     -13.922  75.448 104.473  0.00  0.00    +0.000 C 
ATOM      8  O1  UNL     1     -13.638  75.957 105.592  0.00  0.00    +0.000 OA
ATOM      9  N3  UNL     1     -13.347  75.910 103.310  0.00  0.00    +0.000 N 
ATOM     10  C6  UNL     1     -13.633  75.301 102.100  0.00  0.00    +0.000 C 
ATOM     11  O2  UNL     1     -13.049  75.688 101.048  0.00  0.00    +0.000 OA
ATOM     12  N4  UNL     1     -14.545  74.268 102.029  0.00  0.00    +0.000 N 
ATOM     13  C7  UNL     1     -14.838  73.599 100.754  0.00  0.00    +0.000 C 
ATOM     14  C8  UNL     1     -12.359  77.001 103.366  0.00  0.00    +0.000 C 
ENDROOT
TORSDOF 0
ENDMDL
MODEL 5
REMARK VINA RESULT:      -4.8      2.456      4.292
REMARK  Name = .\Caffeine.pdb
REMARK  3 active torsions:
REMARK  status: ('A' for Active; 'I' for Inactive)
REMARK    1  A    between atoms: C1_1  and  N1_2
REMARK    2  A    between atoms: N3_9  and  C8_14
REMARK    3  A    between atoms: N4_12  and  C7_13
REMARK                            x       y       z     vdW  Elec       q    Type
REMARK                         _______ _______ _______ _____ _____    ______ ____
ROOT
ATOM      1  C1  UNL     1     -17.034  75.010 103.692  0.00  0.00    +0.000 C 
ATOM      2  N1  UNL     1     -15.689  75.380 104.121  0.00  0.00    +0.000 N 
ATOM      3  C2  UNL     1     -15.011  74.895 105.190  0.00  0.00    +0.000 C 
ATOM      4  N2  UNL     1     -13.781  75.452 105.339  0.00  0.00    +0.000 NA
ATOM      5  C3  UNL     1     -13.714  76.315 104.305  0.00  0.00    +0.000 C 
ATOM      6  C4  UNL     1     -14.853  76.279 103.576  0.00  0.00    +0.000 C 
ATOM      7  C5  UNL     1     -15.011  77.110 102.475  0.00  0.00    +0.000 C 
ATOM      8  O1  UNL     1     -16.081  77.092 101.806  0.00  0.00    +0.000 OA
ATOM      9  N3  UNL     1     -13.975  77.955 102.144  0.00  0.00    +0.000 N 
ATOM     10  C6  UNL     1     -12.832  77.996 102.924  0.00  0.00    +0.000 C 
ATOM     11  O2  UNL     1     -11.916  78.823 102.653  0.00  0.00    +0.000 OA
ATOM     12  N4  UNL     1     -12.683  77.148 104.002  0.00  0.00    +0.000 N 
ATOM     13  C7  UNL     1     -11.484  77.199 104.849  0.00  0.00    +0.000 C 
ATOM     14  C8  UNL     1     -14.120  78.880 101.006  0.00  0.00    +0.000 C 
ENDROOT
TORSDOF 0
ENDMDL
MODEL 6
REMARK VINA RESULT:      -4.8      2.718      4.635
REMARK  Name = .\Caffeine.pdb
REMARK  3 active torsions:
REMARK  status: ('A' for Active; 'I' for Inactive)
REMARK    1  A    between atoms: C1_1  and  N1_2
REMARK    2  A    between atoms: N3_9  and  C8_14
REMARK    3  A    between atoms: N4_12  and  C7_13
REMARK                            x       y       z     vdW  Elec       q    Type
REMARK                         _______ _______ _______ _____ _____    ______ ____
ROOT
ATOM      1  C1  UNL     1     -15.605  73.096 101.042  0.00  0.00    +0.000 C 
ATOM      2  N1  UNL     1     -14.771  74.227 101.437  0.00  0.00    +0.000 N 
ATOM      3  C2  UNL     1     -13.422  74.237 101.575  0.00  0.00    +0.000 C 
ATOM      4  N2  UNL     1     -12.936  75.440 101.976  0.00  0.00    +0.000 NA
ATOM      5  C3  UNL     1     -14.049  76.195 102.081  0.00  0.00    +0.000 C 
ATOM      6  C4  UNL     1     -15.149  75.474 101.764  0.00  0.00    +0.000 C 
ATOM      7  C5  UNL     1     -16.411  76.049 101.830  0.00  0.00    +0.000 C 
ATOM      8  O1  UNL     1     -17.439  75.371 101.554  0.00  0.00    +0.000 OA
ATOM      9  N3  UNL     1     -16.506  77.368 102.213  0.00  0.00    +0.000 N 
ATOM     10  C6  UNL     1     -15.368  78.076 102.563  0.00  0.00    +0.000 C 
ATOM     11  O2  UNL     1     -15.471  79.265 102.978  0.00  0.00    +0.000 OA
ATOM     12  N4  UNL     1     -14.120  77.496 102.471  0.00  0.00    +0.000 N 
ATOM     13  C7  UNL     1     -12.910  78.231 102.861  0.00  0.00    +0.000 C 
ATOM     14  C8  UNL     1     -17.830  78.002 102.333  0.00  0.00    +0.000 C 
ENDROOT
TORSDOF 0
ENDMDL
MODEL 7
REMARK VINA RESULT:      -4.7      2.403      4.743
REMARK  Name = .\Caffeine.pdb
REMARK  3 active torsions:
REMARK  status: ('A' for Active; 'I' for Inactive)
REMARK    1  A    between atoms: C1_1  and  N1_2
REMARK    2  A    between atoms: N3_9  and  C8_14
REMARK    3  A    between atoms: N4_12  and  C7_13
REMARK                            x       y       z     vdW  Elec       q    Type
REMARK                         _______ _______ _______ _____ _____    ______ ____
ROOT
ATOM      1  C1  UNL     1     -15.996  74.180 104.624  0.00  0.00    +0.000 C 
ATOM      2  N1  UNL     1     -15.748  75.217 103.627  0.00  0.00    +0.000 N 
ATOM      3  C2  UNL     1     -16.497  75.491 102.531  0.00  0.00    +0.000 C 
ATOM      4  N2  UNL     1     -15.996  76.506 101.782  0.00  0.00    +0.000 NA
ATOM      5  C3  UNL     1     -14.889  76.865 102.464  0.00  0.00    +0.000 C 
ATOM      6  C4  UNL     1     -14.734  76.096 103.566  0.00  0.00    +0.000 C 
ATOM      7  C5  UNL     1     -13.642  76.277 104.404  0.00  0.00    +0.000 C 
ATOM      8  O1  UNL     1     -13.486  75.546 105.420  0.00  0.00    +0.000 OA
ATOM      9  N3  UNL     1     -12.735  77.264 104.087  0.00  0.00    +0.000 N 
ATOM     10  C6  UNL     1     -12.899  78.018 102.937  0.00  0.00    +0.000 C 
ATOM     11  O2  UNL     1     -12.027  78.875 102.619  0.00  0.00    +0.000 OA
ATOM     12  N4  UNL     1     -14.002  77.840 102.128  0.00  0.00    +0.000 N 
ATOM     13  C7  UNL     1     -14.173  78.618 100.894  0.00  0.00    +0.000 C 
ATOM     14  C8  UNL     1     -11.543  77.461 104.929  0.00  0.00    +0.000 C 
ENDROOT
TORSDOF 0
ENDMDL
MODEL 8
REMARK VINA RESULT:      -4.7      2.463      3.333
REMARK  Name = .\Caffeine.pdb
REMARK  3 active torsions:
REMARK  status: ('A' for Active; 'I' for Inactive)
REMARK    1  A    between atoms: C1_1  and  N1_2
REMARK    2  A    between atoms: N3_9  and  C8_14
REMARK    3  A    between atoms: N4_12  and  C7_13
REMARK                            x       y       z     vdW  Elec       q    Type
REMARK                         _______ _______ _______ _____ _____    ______ ____
ROOT
ATOM      1  C1  UNL     1     -13.222  75.529 102.248  0.00  0.00    +0.000 C 
ATOM      2  N1  UNL     1     -14.643  75.858 102.287  0.00  0.00    +0.000 N 
ATOM      3  C2  UNL     1     -15.238  76.966 101.779  0.00  0.00    +0.000 C 
ATOM      4  N2  UNL     1     -16.580  76.995 101.990  0.00  0.00    +0.000 NA
ATOM      5  C3  UNL     1     -16.805  75.845 102.656  0.00  0.00    +0.000 C 
ATOM      6  C4  UNL     1     -15.650  75.163 102.839  0.00  0.00    +0.000 C 
ATOM      7  C5  UNL     1     -15.646  73.957 103.528  0.00  0.00    +0.000 C 
ATOM      8  O1  UNL     1     -14.567  73.331 103.717  0.00  0.00    +0.000 OA
ATOM      9  N3  UNL     1     -16.846  73.475 104.004  0.00  0.00    +0.000 N 
ATOM     10  C6  UNL     1     -18.009  74.206 103.830  0.00  0.00    +0.000 C 
ATOM     11  O2  UNL     1     -19.093  73.789 104.328  0.00  0.00    +0.000 OA
ATOM     12  N4  UNL     1     -17.998  75.392 103.125  0.00  0.00    +0.000 N 
ATOM     13  C7  UNL     1     -19.222  76.186 102.955  0.00  0.00    +0.000 C 
ATOM     14  C8  UNL     1     -16.877  72.219 104.772  0.00  0.00    +0.000 C 
ENDROOT
TORSDOF 0
ENDMDL
MODEL 9
REMARK VINA RESULT:      -4.7      2.469      2.526
REMARK  Name = .\Caffeine.pdb
REMARK  3 active torsions:
REMARK  status: ('A' for Active; 'I' for Inactive)
REMARK    1  A    between atoms: C1_1  and  N1_2
REMARK    2  A    between atoms: N3_9  and  C8_14
REMARK    3  A    between atoms: N4_12  and  C7_13
REMARK                            x       y       z     vdW  Elec       q    Type
REMARK                         _______ _______ _______ _____ _____    ______ ____
ROOT
ATOM      1  C1  UNL     1     -13.408  79.422 103.284  0.00  0.00    +0.000 C 
ATOM      2  N1  UNL     1     -14.654  78.687 103.092  0.00  0.00    +0.000 N 
ATOM      3  C2  UNL     1     -15.912  79.139 103.320  0.00  0.00    +0.000 C 
ATOM      4  N2  UNL     1     -16.868  78.209 103.064  0.00  0.00    +0.000 NA
ATOM      5  C3  UNL     1     -16.149  77.143 102.657  0.00  0.00    +0.000 C 
ATOM      6  C4  UNL     1     -14.825  77.422 102.675  0.00  0.00    +0.000 C 
ATOM      7  C5  UNL     1     -13.896  76.453 102.317  0.00  0.00    +0.000 C 
ATOM      8  O1  UNL     1     -12.661  76.706 102.354  0.00  0.00    +0.000 OA
ATOM      9  N3  UNL     1     -14.362  75.215 101.934  0.00  0.00    +0.000 N 
ATOM     10  C6  UNL     1     -15.720  74.945 101.953  0.00  0.00    +0.000 C 
ATOM     11  O2  UNL     1     -16.133  73.785 101.666  0.00  0.00    +0.000 OA
ATOM     12  N4  UNL     1     -16.630  75.925 102.291  0.00  0.00    +0.000 N 
ATOM     13  C7  UNL     1     -18.071  75.641 102.337  0.00  0.00    +0.000 C 
ATOM     14  C8  UNL     1     -13.407  74.150 101.585  0.00  0.00    +0.000 C 
ENDROOT
TORSDOF 0
ENDMDL
