MODEL 1
REMARK VINA RESULT:      -4.8      0.000      0.000
REMARK  Name = .\Caffeine.pdb
REMARK  3 active torsions:
REMARK  status: ('A' for Active; 'I' for Inactive)
REMARK    1  A    between atoms: C1_1  and  N1_2
REMARK    2  A    between atoms: N3_9  and  C8_14
REMARK    3  A    between atoms: N4_12  and  C7_13
REMARK                            x       y       z     vdW  Elec       q    Type
REMARK                         _______ _______ _______ _____ _____    ______ ____
ROOT
ATOM      1  C1  UNL     1       8.143  66.781  75.192  0.00  0.00    +0.000 C 
ATOM      2  N1  UNL     1       8.375  67.314  76.531  0.00  0.00    +0.000 N 
ATOM      3  C2  UNL     1       8.930  66.663  77.583  0.00  0.00    +0.000 C 
ATOM      4  N2  UNL     1       8.995  67.423  78.707  0.00  0.00    +0.000 NA
ATOM      5  C3  UNL     1       8.454  68.593  78.310  0.00  0.00    +0.000 C 
ATOM      6  C4  UNL     1       8.079  68.533  77.011  0.00  0.00    +0.000 C 
ATOM      7  C5  UNL     1       7.473  69.623  76.401  0.00  0.00    +0.000 C 
ATOM      8  O1  UNL     1       7.104  69.559  75.196  0.00  0.00    +0.000 OA
ATOM      9  N3  UNL     1       7.279  70.763  77.149  0.00  0.00    +0.000 N 
ATOM     10  C6  UNL     1       7.645  70.790  78.485  0.00  0.00    +0.000 C 
ATOM     11  O2  UNL     1       7.401  71.816  79.182  0.00  0.00    +0.000 OA
ATOM     12  N4  UNL     1       8.265  69.705  79.070  0.00  0.00    +0.000 N 
ATOM     13  C7  UNL     1       8.635  69.716  80.491  0.00  0.00    +0.000 C 
ATOM     14  C8  UNL     1       6.605  71.926  76.550  0.00  0.00    +0.000 C 
ENDROOT
TORSDOF 0
ENDMDL
MODEL 2
REMARK VINA RESULT:      -4.8      1.659      4.457
REMARK  Name = .\Caffeine.pdb
REMARK  3 active torsions:
REMARK  status: ('A' for Active; 'I' for Inactive)
REMARK    1  A    between atoms: C1_1  and  N1_2
REMARK    2  A    between atoms: N3_9  and  C8_14
REMARK    3  A    between atoms: N4_12  and  C7_13
REMARK                            x       y       z     vdW  Elec       q    Type
REMARK                         _______ _______ _______ _____ _____    ______ ____
ROOT
ATOM      1  C1  UNL     1       6.589  73.319  77.873  0.00  0.00    +0.000 C 
ATOM      2  N1  UNL     1       6.816  72.030  77.227  0.00  0.00    +0.000 N 
ATOM      3  C2  UNL     1       6.547  71.705  75.939  0.00  0.00    +0.000 C 
ATOM      4  N2  UNL     1       6.853  70.416  75.639  0.00  0.00    +0.000 NA
ATOM      5  C3  UNL     1       7.334  69.942  76.806  0.00  0.00    +0.000 C 
ATOM      6  C4  UNL     1       7.311  70.901  77.760  0.00  0.00    +0.000 C 
ATOM      7  C5  UNL     1       7.739  70.622  79.051  0.00  0.00    +0.000 C 
ATOM      8  O1  UNL     1       7.698  71.510  79.946  0.00  0.00    +0.000 OA
ATOM      9  N3  UNL     1       8.195  69.351  79.324  0.00  0.00    +0.000 N 
ATOM     10  C6  UNL     1       8.181  68.378  78.339  0.00  0.00    +0.000 C 
ATOM     11  O2  UNL     1       8.537  67.198  78.617  0.00  0.00    +0.000 OA
ATOM     12  N4  UNL     1       7.772  68.679  77.056  0.00  0.00    +0.000 N 
ATOM     13  C7  UNL     1       7.731  67.649  76.010  0.00  0.00    +0.000 C 
ATOM     14  C8  UNL     1       8.621  69.005  80.690  0.00  0.00    +0.000 C 
ENDROOT
TORSDOF 0
ENDMDL
MODEL 3
REMARK VINA RESULT:      -4.7      1.702      3.710
REMARK  Name = .\Caffeine.pdb
REMARK  3 active torsions:
REMARK  status: ('A' for Active; 'I' for Inactive)
REMARK    1  A    between atoms: C1_1  and  N1_2
REMARK    2  A    between atoms: N3_9  and  C8_14
REMARK    3  A    between atoms: N4_12  and  C7_13
REMARK                            x       y       z     vdW  Elec       q    Type
REMARK                         _______ _______ _______ _____ _____    ______ ____
ROOT
ATOM      1  C1  UNL     1       6.703  72.148  78.011  0.00  0.00    +0.000 C 
ATOM      2  N1  UNL     1       7.597  71.131  78.557  0.00  0.00    +0.000 N 
ATOM      3  C2  UNL     1       8.186  71.133  79.778  0.00  0.00    +0.000 C 
ATOM      4  N2  UNL     1       8.982  70.054  79.989  0.00  0.00    +0.000 NA
ATOM      5  C3  UNL     1       8.864  69.364  78.836  0.00  0.00    +0.000 C 
ATOM      6  C4  UNL     1       8.040  70.005  77.975  0.00  0.00    +0.000 C 
ATOM      7  C5  UNL     1       7.796  69.483  76.712  0.00  0.00    +0.000 C 
ATOM      8  O1  UNL     1       7.045  70.091  75.901  0.00  0.00    +0.000 OA
ATOM      9  N3  UNL     1       8.404  68.295  76.370  0.00  0.00    +0.000 N 
ATOM     10  C6  UNL     1       9.267  67.673  77.257  0.00  0.00    +0.000 C 
ATOM     11  O2  UNL     1       9.873  66.620  76.910  0.00  0.00    +0.000 OA
ATOM     12  N4  UNL     1       9.482  68.195  78.516  0.00  0.00    +0.000 N 
ATOM     13  C7  UNL     1      10.413  67.556  79.455  0.00  0.00    +0.000 C 
ATOM     14  C8  UNL     1       8.201  67.729  75.026  0.00  0.00    +0.000 C 
ENDROOT
TORSDOF 0
ENDMDL
MODEL 4
REMARK VINA RESULT:      -4.5      1.469      3.000
REMARK  Name = .\Caffeine.pdb
REMARK  3 active torsions:
REMARK  status: ('A' for Active; 'I' for Inactive)
REMARK    1  A    between atoms: C1_1  and  N1_2
REMARK    2  A    between atoms: N3_9  and  C8_14
REMARK    3  A    between atoms: N4_12  and  C7_13
REMARK                            x       y       z     vdW  Elec       q    Type
REMARK                         _______ _______ _______ _____ _____    ______ ____
ROOT
ATOM      1  C1  UNL     1       8.902  66.383  77.207  0.00  0.00    +0.000 C 
ATOM      2  N1  UNL     1       8.264  67.597  76.706  0.00  0.00    +0.000 N 
ATOM      3  C2  UNL     1       7.759  67.800  75.464  0.00  0.00    +0.000 C 
ATOM      4  N2  UNL     1       7.245  69.046  75.295  0.00  0.00    +0.000 NA
ATOM      5  C3  UNL     1       7.449  69.621  76.498  0.00  0.00    +0.000 C 
ATOM      6  C4  UNL     1       8.060  68.761  77.344  0.00  0.00    +0.000 C 
ATOM      7  C5  UNL     1       8.390  69.155  78.634  0.00  0.00    +0.000 C 
ATOM      8  O1  UNL     1       8.979  68.360  79.416  0.00  0.00    +0.000 OA
ATOM      9  N3  UNL     1       8.066  70.435  79.026  0.00  0.00    +0.000 N 
ATOM     10  C6  UNL     1       7.467  71.307  78.131  0.00  0.00    +0.000 C 
ATOM     11  O2  UNL     1       7.235  72.500  78.478  0.00  0.00    +0.000 OA
ATOM     12  N4  UNL     1       7.127  70.892  76.860  0.00  0.00    +0.000 N 
ATOM     13  C7  UNL     1       6.514  71.815  75.898  0.00  0.00    +0.000 C 
ATOM     14  C8  UNL     1       8.433  70.904  80.372  0.00  0.00    +0.000 C 
ENDROOT
TORSDOF 0
ENDMDL
MODEL 5
REMARK VINA RESULT:      -4.4      1.937      4.686
REMARK  Name = .\Caffeine.pdb
REMARK  3 active torsions:
REMARK  status: ('A' for Active; 'I' for Inactive)
REMARK    1  A    between atoms: C1_1  and  N1_2
REMARK    2  A    between atoms: N3_9  and  C8_14
REMARK    3  A    between atoms: N4_12  and  C7_13
REMARK                            x       y       z     vdW  Elec       q    Type
REMARK                         _______ _______ _______ _____ _____    ______ ____
ROOT
ATOM      1  C1  UNL     1       7.301  71.462  78.294  0.00  0.00    +0.000 C 
ATOM      2  N1  UNL     1       7.533  70.465  77.254  0.00  0.00    +0.000 N 
ATOM      3  C2  UNL     1       6.990  70.440  76.012  0.00  0.00    +0.000 C 
ATOM      4  N2  UNL     1       7.387  69.369  75.277  0.00  0.00    +0.000 NA
ATOM      5  C3  UNL     1       8.214  68.717  76.119  0.00  0.00    +0.000 C 
ATOM      6  C4  UNL     1       8.303  69.366  77.304  0.00  0.00    +0.000 C 
ATOM      7  C5  UNL     1       9.084  68.853  78.331  0.00  0.00    +0.000 C 
ATOM      8  O1  UNL     1       9.150  69.447  79.442  0.00  0.00    +0.000 OA
ATOM      9  N3  UNL     1       9.770  67.681  78.104  0.00  0.00    +0.000 N 
ATOM     10  C6  UNL     1       9.640  67.019  76.894  0.00  0.00    +0.000 C 
ATOM     11  O2  UNL     1      10.219  65.910  76.720  0.00  0.00    +0.000 OA
ATOM     12  N4  UNL     1       8.876  67.554  75.877  0.00  0.00    +0.000 N 
ATOM     13  C7  UNL     1       8.713  66.848  74.599  0.00  0.00    +0.000 C 
ATOM     14  C8  UNL     1      10.578  67.085  79.182  0.00  0.00    +0.000 C 
ENDROOT
TORSDOF 0
ENDMDL
MODEL 6
REMARK VINA RESULT:      -4.4      1.955      3.316
REMARK  Name = .\Caffeine.pdb
REMARK  3 active torsions:
REMARK  status: ('A' for Active; 'I' for Inactive)
REMARK    1  A    between atoms: C1_1  and  N1_2
REMARK    2  A    between atoms: N3_9  and  C8_14
REMARK    3  A    between atoms: N4_12  and  C7_13
REMARK                            x       y       z     vdW  Elec       q    Type
REMARK                         _______ _______ _______ _____ _____    ______ ____
ROOT
ATOM      1  C1  UNL     1       7.774  66.586  75.404  0.00  0.00    +0.000 C 
ATOM      2  N1  UNL     1       7.694  67.830  76.164  0.00  0.00    +0.000 N 
ATOM      3  C2  UNL     1       7.391  69.061  75.685  0.00  0.00    +0.000 C 
ATOM      4  N2  UNL     1       7.416  70.026  76.640  0.00  0.00    +0.000 NA
ATOM      5  C3  UNL     1       7.749  69.340  77.753  0.00  0.00    +0.000 C 
ATOM      6  C4  UNL     1       7.920  68.027  77.474  0.00  0.00    +0.000 C 
ATOM      7  C5  UNL     1       8.293  67.138  78.472  0.00  0.00    +0.000 C 
ATOM      8  O1  UNL     1       8.473  65.917  78.208  0.00  0.00    +0.000 OA
ATOM      9  N3  UNL     1       8.469  67.627  79.747  0.00  0.00    +0.000 N 
ATOM     10  C6  UNL     1       8.317  68.980  80.002  0.00  0.00    +0.000 C 
ATOM     11  O2  UNL     1       8.547  69.430  81.160  0.00  0.00    +0.000 OA
ATOM     12  N4  UNL     1       7.926  69.847  79.002  0.00  0.00    +0.000 N 
ATOM     13  C7  UNL     1       7.785  71.286  79.257  0.00  0.00    +0.000 C 
ATOM     14  C8  UNL     1       8.902  66.722  80.825  0.00  0.00    +0.000 C 
ENDROOT
TORSDOF 0
ENDMDL
MODEL 7
REMARK VINA RESULT:      -4.4      2.611      4.297
REMARK  Name = .\Caffeine.pdb
REMARK  3 active torsions:
REMARK  status: ('A' for Active; 'I' for Inactive)
REMARK    1  A    between atoms: C1_1  and  N1_2
REMARK    2  A    between atoms: N3_9  and  C8_14
REMARK    3  A    between atoms: N4_12  and  C7_13
REMARK                            x       y       z     vdW  Elec       q    Type
REMARK                         _______ _______ _______ _____ _____    ______ ____
ROOT
ATOM      1  C1  UNL     1       6.683  66.968  82.398  0.00  0.00    +0.000 C 
ATOM      2  N1  UNL     1       6.577  66.800  80.952  0.00  0.00    +0.000 N 
ATOM      3  C2  UNL     1       5.842  65.874  80.289  0.00  0.00    +0.000 C 
ATOM      4  N2  UNL     1       5.965  65.960  78.940  0.00  0.00    +0.000 NA
ATOM      5  C3  UNL     1       6.816  66.994  78.781  0.00  0.00    +0.000 C 
ATOM      6  C4  UNL     1       7.188  67.498  79.980  0.00  0.00    +0.000 C 
ATOM      7  C5  UNL     1       8.085  68.556  80.052  0.00  0.00    +0.000 C 
ATOM      8  O1  UNL     1       8.448  69.012  81.170  0.00  0.00    +0.000 OA
ATOM      9  N3  UNL     1       8.569  69.079  78.874  0.00  0.00    +0.000 N 
ATOM     10  C6  UNL     1       8.197  68.526  77.660  0.00  0.00    +0.000 C 
ATOM     11  O2  UNL     1       8.699  68.969  76.588  0.00  0.00    +0.000 OA
ATOM     12  N4  UNL     1       7.288  67.489  77.606  0.00  0.00    +0.000 N 
ATOM     13  C7  UNL     1       6.905  66.881  76.325  0.00  0.00    +0.000 C 
ATOM     14  C8  UNL     1       9.552  70.175  78.909  0.00  0.00    +0.000 C 
ENDROOT
TORSDOF 0
ENDMDL
MODEL 8
REMARK VINA RESULT:      -4.3      1.653      3.661
REMARK  Name = .\Caffeine.pdb
REMARK  3 active torsions:
REMARK  status: ('A' for Active; 'I' for Inactive)
REMARK    1  A    between atoms: C1_1  and  N1_2
REMARK    2  A    between atoms: N3_9  and  C8_14
REMARK    3  A    between atoms: N4_12  and  C7_13
REMARK                            x       y       z     vdW  Elec       q    Type
REMARK                         _______ _______ _______ _____ _____    ______ ____
ROOT
ATOM      1  C1  UNL     1       9.193  66.478  80.499  0.00  0.00    +0.000 C 
ATOM      2  N1  UNL     1       8.717  67.721  79.898  0.00  0.00    +0.000 N 
ATOM      3  C2  UNL     1       8.408  68.873  80.544  0.00  0.00    +0.000 C 
ATOM      4  N2  UNL     1       7.972  69.851  79.709  0.00  0.00    +0.000 NA
ATOM      5  C3  UNL     1       8.025  69.260  78.498  0.00  0.00    +0.000 C 
ATOM      6  C4  UNL     1       8.466  67.985  78.606  0.00  0.00    +0.000 C 
ATOM      7  C5  UNL     1       8.573  67.179  77.480  0.00  0.00    +0.000 C 
ATOM      8  O1  UNL     1       8.964  65.984  77.582  0.00  0.00    +0.000 OA
ATOM      9  N3  UNL     1       8.231  67.718  76.259  0.00  0.00    +0.000 N 
ATOM     10  C6  UNL     1       7.753  69.015  76.179  0.00  0.00    +0.000 C 
ATOM     11  O2  UNL     1       7.378  69.478  75.065  0.00  0.00    +0.000 OA
ATOM     12  N4  UNL     1       7.673  69.809  77.305  0.00  0.00    +0.000 N 
ATOM     13  C7  UNL     1       7.146  71.178  77.234  0.00  0.00    +0.000 C 
ATOM     14  C8  UNL     1       8.294  66.883  75.048  0.00  0.00    +0.000 C 
ENDROOT
TORSDOF 0
ENDMDL
MODEL 9
REMARK VINA RESULT:      -4.2      2.030      4.181
REMARK  Name = .\Caffeine.pdb
REMARK  3 active torsions:
REMARK  status: ('A' for Active; 'I' for Inactive)
REMARK    1  A    between atoms: C1_1  and  N1_2
REMARK    2  A    between atoms: N3_9  and  C8_14
REMARK    3  A    between atoms: N4_12  and  C7_13
REMARK                            x       y       z     vdW  Elec       q    Type
REMARK                         _______ _______ _______ _____ _____    ______ ____
ROOT
ATOM      1  C1  UNL     1       7.456  70.779  77.670  0.00  0.00    +0.000 C 
ATOM      2  N1  UNL     1       8.465  69.753  77.916  0.00  0.00    +0.000 N 
ATOM      3  C2  UNL     1       9.592  69.879  78.658  0.00  0.00    +0.000 C 
ATOM      4  N2  UNL     1      10.343  68.748  78.683  0.00  0.00    +0.000 NA
ATOM      5  C3  UNL     1       9.631  67.896  77.918  0.00  0.00    +0.000 C 
ATOM      6  C4  UNL     1       8.508  68.492  77.454  0.00  0.00    +0.000 C 
ATOM      7  C5  UNL     1       7.637  67.803  76.622  0.00  0.00    +0.000 C 
ATOM      8  O1  UNL     1       6.601  68.365  76.172  0.00  0.00    +0.000 OA
ATOM      9  N3  UNL     1       7.941  66.500  76.297  0.00  0.00    +0.000 N 
ATOM     10  C6  UNL     1       9.112  65.921  76.760  0.00  0.00    +0.000 C 
ATOM     11  O2  UNL     1       9.417  64.749  76.401  0.00  0.00    +0.000 OA
ATOM     12  N4  UNL     1       9.956  66.614  77.603  0.00  0.00    +0.000 N 
ATOM     13  C7  UNL     1      11.210  66.018  78.080  0.00  0.00    +0.000 C 
ATOM     14  C8  UNL     1       7.063  65.748  75.385  0.00  0.00    +0.000 C 
ENDROOT
TORSDOF 0
ENDMDL
