MODEL 1
REMARK VINA RESULT:      -4.1      0.000      0.000
REMARK  Name = .\Caffeine.pdb
REMARK  3 active torsions:
REMARK  status: ('A' for Active; 'I' for Inactive)
REMARK    1  A    between atoms: C1_1  and  N1_2
REMARK    2  A    between atoms: N3_9  and  C8_14
REMARK    3  A    between atoms: N4_12  and  C7_13
REMARK                            x       y       z     vdW  Elec       q    Type
REMARK                         _______ _______ _______ _____ _____    ______ ____
ROOT
ATOM      1  C1  UNL     1      18.730  92.316  85.329  0.00  0.00    +0.000 C 
ATOM      2  N1  UNL     1      17.559  93.103  85.702  0.00  0.00    +0.000 N 
ATOM      3  C2  UNL     1      17.550  94.330  86.278  0.00  0.00    +0.000 C 
ATOM      4  N2  UNL     1      16.298  94.796  86.522  0.00  0.00    +0.000 NA
ATOM      5  C3  UNL     1      15.512  93.799  86.067  0.00  0.00    +0.000 C 
ATOM      6  C4  UNL     1      16.260  92.783  85.579  0.00  0.00    +0.000 C 
ATOM      7  C5  UNL     1      15.654  91.638  85.080  0.00  0.00    +0.000 C 
ATOM      8  O1  UNL     1      16.351  90.681  84.644  0.00  0.00    +0.000 OA
ATOM      9  N3  UNL     1      14.278  91.575  85.086  0.00  0.00    +0.000 N 
ATOM     10  C6  UNL     1      13.535  92.615  85.619  0.00  0.00    +0.000 C 
ATOM     11  O2  UNL     1      12.276  92.519  85.683  0.00  0.00    +0.000 OA
ATOM     12  N4  UNL     1      14.153  93.754  86.091  0.00  0.00    +0.000 N 
ATOM     13  C7  UNL     1      13.375  94.853  86.679  0.00  0.00    +0.000 C 
ATOM     14  C8  UNL     1      13.599  90.361  84.602  0.00  0.00    +0.000 C 
ENDROOT
TORSDOF 0
ENDMDL
MODEL 2
REMARK VINA RESULT:      -3.6      1.759      4.572
REMARK  Name = .\Caffeine.pdb
REMARK  3 active torsions:
REMARK  status: ('A' for Active; 'I' for Inactive)
REMARK    1  A    between atoms: C1_1  and  N1_2
REMARK    2  A    between atoms: N3_9  and  C8_14
REMARK    3  A    between atoms: N4_12  and  C7_13
REMARK                            x       y       z     vdW  Elec       q    Type
REMARK                         _______ _______ _______ _____ _____    ______ ____
ROOT
ATOM      1  C1  UNL     1      12.548  94.943  86.824  0.00  0.00    +0.000 C 
ATOM      2  N1  UNL     1      13.161  93.851  86.074  0.00  0.00    +0.000 N 
ATOM      3  C2  UNL     1      12.522  92.902  85.346  0.00  0.00    +0.000 C 
ATOM      4  N2  UNL     1      13.369  92.006  84.777  0.00  0.00    +0.000 NA
ATOM      5  C3  UNL     1      14.580  92.438  85.182  0.00  0.00    +0.000 C 
ATOM      6  C4  UNL     1      14.462  93.538  85.960  0.00  0.00    +0.000 C 
ATOM      7  C5  UNL     1      15.588  94.137  86.510  0.00  0.00    +0.000 C 
ATOM      8  O1  UNL     1      15.476  95.151  87.253  0.00  0.00    +0.000 OA
ATOM      9  N3  UNL     1      16.819  93.588  86.229  0.00  0.00    +0.000 N 
ATOM     10  C6  UNL     1      16.912  92.444  85.455  0.00  0.00    +0.000 C 
ATOM     11  O2  UNL     1      18.040  91.908  85.259  0.00  0.00    +0.000 OA
ATOM     12  N4  UNL     1      15.785  91.874  84.900  0.00  0.00    +0.000 N 
ATOM     13  C7  UNL     1      15.871  90.647  84.097  0.00  0.00    +0.000 C 
ATOM     14  C8  UNL     1      18.033  94.171  86.825  0.00  0.00    +0.000 C 
ENDROOT
TORSDOF 0
ENDMDL
MODEL 3
REMARK VINA RESULT:      -3.5      1.623      3.992
REMARK  Name = .\Caffeine.pdb
REMARK  3 active torsions:
REMARK  status: ('A' for Active; 'I' for Inactive)
REMARK    1  A    between atoms: C1_1  and  N1_2
REMARK    2  A    between atoms: N3_9  and  C8_14
REMARK    3  A    between atoms: N4_12  and  C7_13
REMARK                            x       y       z     vdW  Elec       q    Type
REMARK                         _______ _______ _______ _____ _____    ______ ____
ROOT
ATOM      1  C1  UNL     1      13.064  89.991  84.345  0.00  0.00    +0.000 C 
ATOM      2  N1  UNL     1      14.338  90.664  84.579  0.00  0.00    +0.000 N 
ATOM      3  C2  UNL     1      15.574  90.202  84.267  0.00  0.00    +0.000 C 
ATOM      4  N2  UNL     1      16.569  91.054  84.628  0.00  0.00    +0.000 NA
ATOM      5  C3  UNL     1      15.897  92.082  85.184  0.00  0.00    +0.000 C 
ATOM      6  C4  UNL     1      14.563  91.854  85.160  0.00  0.00    +0.000 C 
ATOM      7  C5  UNL     1      13.680  92.775  85.706  0.00  0.00    +0.000 C 
ATOM      8  O1  UNL     1      12.439  92.553  85.703  0.00  0.00    +0.000 OA
ATOM      9  N3  UNL     1      14.199  93.926  86.257  0.00  0.00    +0.000 N 
ATOM     10  C6  UNL     1      15.569  94.124  86.296  0.00  0.00    +0.000 C 
ATOM     11  O2  UNL     1      16.039  95.151  86.863  0.00  0.00    +0.000 OA
ATOM     12  N4  UNL     1      16.431  93.208  85.730  0.00  0.00    +0.000 N 
ATOM     13  C7  UNL     1      17.886  93.397  85.787  0.00  0.00    +0.000 C 
ATOM     14  C8  UNL     1      13.298  94.910  86.880  0.00  0.00    +0.000 C 
ENDROOT
TORSDOF 0
ENDMDL
MODEL 4
REMARK VINA RESULT:      -3.2      2.334      4.278
REMARK  Name = .\Caffeine.pdb
REMARK  3 active torsions:
REMARK  status: ('A' for Active; 'I' for Inactive)
REMARK    1  A    between atoms: C1_1  and  N1_2
REMARK    2  A    between atoms: N3_9  and  C8_14
REMARK    3  A    between atoms: N4_12  and  C7_13
REMARK                            x       y       z     vdW  Elec       q    Type
REMARK                         _______ _______ _______ _____ _____    ______ ____
ROOT
ATOM      1  C1  UNL     1      11.016  94.272  84.660  0.00  0.00    +0.000 C 
ATOM      2  N1  UNL     1      12.364  94.251  84.101  0.00  0.00    +0.000 N 
ATOM      3  C2  UNL     1      12.906  95.151  83.243  0.00  0.00    +0.000 C 
ATOM      4  N2  UNL     1      14.181  94.848  82.887  0.00  0.00    +0.000 NA
ATOM      5  C3  UNL     1      14.421  93.708  83.567  0.00  0.00    +0.000 C 
ATOM      6  C4  UNL     1      13.337  93.345  84.292  0.00  0.00    +0.000 C 
ATOM      7  C5  UNL     1      13.355  92.183  85.052  0.00  0.00    +0.000 C 
ATOM      8  O1  UNL     1      12.337  91.833  85.711  0.00  0.00    +0.000 OA
ATOM      9  N3  UNL     1      14.504  91.425  85.055  0.00  0.00    +0.000 N 
ATOM     10  C6  UNL     1      15.590  91.801  84.281  0.00  0.00    +0.000 C 
ATOM     11  O2  UNL     1      16.615  91.063  84.236  0.00  0.00    +0.000 OA
ATOM     12  N4  UNL     1      15.563  92.970  83.549  0.00  0.00    +0.000 N 
ATOM     13  C7  UNL     1      16.699  93.366  82.707  0.00  0.00    +0.000 C 
ATOM     14  C8  UNL     1      14.549  90.165  85.817  0.00  0.00    +0.000 C 
ENDROOT
TORSDOF 0
ENDMDL
MODEL 5
REMARK VINA RESULT:      -3.1      1.583      3.654
REMARK  Name = .\Caffeine.pdb
REMARK  3 active torsions:
REMARK  status: ('A' for Active; 'I' for Inactive)
REMARK    1  A    between atoms: C1_1  and  N1_2
REMARK    2  A    between atoms: N3_9  and  C8_14
REMARK    3  A    between atoms: N4_12  and  C7_13
REMARK                            x       y       z     vdW  Elec       q    Type
REMARK                         _______ _______ _______ _____ _____    ______ ____
ROOT
ATOM      1  C1  UNL     1      13.567  90.276  84.149  0.00  0.00    +0.000 C 
ATOM      2  N1  UNL     1      13.777  91.470  84.962  0.00  0.00    +0.000 N 
ATOM      3  C2  UNL     1      12.823  92.278  85.487  0.00  0.00    +0.000 C 
ATOM      4  N2  UNL     1      13.335  93.326  86.183  0.00  0.00    +0.000 NA
ATOM      5  C3  UNL     1      14.666  93.138  86.074  0.00  0.00    +0.000 C 
ATOM      6  C4  UNL     1      14.936  92.032  85.342  0.00  0.00    +0.000 C 
ATOM      7  C5  UNL     1      16.249  91.663  85.081  0.00  0.00    +0.000 C 
ATOM      8  O1  UNL     1      16.501  90.644  84.382  0.00  0.00    +0.000 OA
ATOM      9  N3  UNL     1      17.259  92.444  85.597  0.00  0.00    +0.000 N 
ATOM     10  C6  UNL     1      16.957  93.588  86.318  0.00  0.00    +0.000 C 
ATOM     11  O2  UNL     1      17.889  94.335  86.729  0.00  0.00    +0.000 OA
ATOM     12  N4  UNL     1      15.647  93.928  86.586  0.00  0.00    +0.000 N 
ATOM     13  C7  UNL     1      15.316  95.151  87.328  0.00  0.00    +0.000 C 
ATOM     14  C8  UNL     1      18.664  92.108  85.310  0.00  0.00    +0.000 C 
ENDROOT
TORSDOF 0
ENDMDL
MODEL 6
REMARK VINA RESULT:      -3.1      2.410      2.701
REMARK  Name = .\Caffeine.pdb
REMARK  3 active torsions:
REMARK  status: ('A' for Active; 'I' for Inactive)
REMARK    1  A    between atoms: C1_1  and  N1_2
REMARK    2  A    between atoms: N3_9  and  C8_14
REMARK    3  A    between atoms: N4_12  and  C7_13
REMARK                            x       y       z     vdW  Elec       q    Type
REMARK                         _______ _______ _______ _____ _____    ______ ____
ROOT
ATOM      1  C1  UNL     1      17.186  94.072  82.375  0.00  0.00    +0.000 C 
ATOM      2  N1  UNL     1      15.792  94.166  82.797  0.00  0.00    +0.000 N 
ATOM      3  C2  UNL     1      14.912  95.150  82.491  0.00  0.00    +0.000 C 
ATOM      4  N2  UNL     1      13.689  94.965  83.052  0.00  0.00    +0.000 NA
ATOM      5  C3  UNL     1      13.840  93.807  83.727  0.00  0.00    +0.000 C 
ATOM      6  C4  UNL     1      15.096  93.327  83.581  0.00  0.00    +0.000 C 
ATOM      7  C5  UNL     1      15.480  92.153  84.216  0.00  0.00    +0.000 C 
ATOM      8  O1  UNL     1      16.657  91.716  84.097  0.00  0.00    +0.000 OA
ATOM      9  N3  UNL     1      14.545  91.492  84.982  0.00  0.00    +0.000 N 
ATOM     10  C6  UNL     1      13.274  92.020  85.141  0.00  0.00    +0.000 C 
ATOM     11  O2  UNL     1      12.445  91.442  85.900  0.00  0.00    +0.000 OA
ATOM     12  N4  UNL     1      12.904  93.176  84.485  0.00  0.00    +0.000 N 
ATOM     13  C7  UNL     1      11.567  93.756  84.666  0.00  0.00    +0.000 C 
ATOM     14  C8  UNL     1      14.925  90.265  85.702  0.00  0.00    +0.000 C 
ENDROOT
TORSDOF 0
ENDMDL
MODEL 7
REMARK VINA RESULT:      -3.0      1.357      1.392
REMARK  Name = .\Caffeine.pdb
REMARK  3 active torsions:
REMARK  status: ('A' for Active; 'I' for Inactive)
REMARK    1  A    between atoms: C1_1  and  N1_2
REMARK    2  A    between atoms: N3_9  and  C8_14
REMARK    3  A    between atoms: N4_12  and  C7_13
REMARK                            x       y       z     vdW  Elec       q    Type
REMARK                         _______ _______ _______ _____ _____    ______ ____
ROOT
ATOM      1  C1  UNL     1      18.662  93.291  84.494  0.00  0.00    +0.000 C 
ATOM      2  N1  UNL     1      17.737  93.854  85.473  0.00  0.00    +0.000 N 
ATOM      3  C2  UNL     1      18.053  94.598  86.561  0.00  0.00    +0.000 C 
ATOM      4  N2  UNL     1      16.969  94.962  87.293  0.00  0.00    +0.000 NA
ATOM      5  C3  UNL     1      15.946  94.412  86.608  0.00  0.00    +0.000 C 
ATOM      6  C4  UNL     1      16.399  93.745  85.521  0.00  0.00    +0.000 C 
ATOM      7  C5  UNL     1      15.514  93.078  84.684  0.00  0.00    +0.000 C 
ATOM      8  O1  UNL     1      15.938  92.439  83.683  0.00  0.00    +0.000 OA
ATOM      9  N3  UNL     1      14.171  93.126  84.986  0.00  0.00    +0.000 N 
ATOM     10  C6  UNL     1      13.735  93.789  86.121  0.00  0.00    +0.000 C 
ATOM     11  O2  UNL     1      12.509  93.770  86.427  0.00  0.00    +0.000 OA
ATOM     12  N4  UNL     1      14.625  94.465  86.930  0.00  0.00    +0.000 N 
ATOM     13  C7  UNL     1      14.175  95.151  88.148  0.00  0.00    +0.000 C 
ATOM     14  C8  UNL     1      13.206  92.398  84.145  0.00  0.00    +0.000 C 
ENDROOT
TORSDOF 0
ENDMDL
MODEL 8
REMARK VINA RESULT:      -2.9      1.636      1.641
REMARK  Name = .\Caffeine.pdb
REMARK  3 active torsions:
REMARK  status: ('A' for Active; 'I' for Inactive)
REMARK    1  A    between atoms: C1_1  and  N1_2
REMARK    2  A    between atoms: N3_9  and  C8_14
REMARK    3  A    between atoms: N4_12  and  C7_13
REMARK                            x       y       z     vdW  Elec       q    Type
REMARK                         _______ _______ _______ _____ _____    ______ ____
ROOT
ATOM      1  C1  UNL     1      18.743  92.214  85.301  0.00  0.00    +0.000 C 
ATOM      2  N1  UNL     1      17.685  93.076  84.785  0.00  0.00    +0.000 N 
ATOM      3  C2  UNL     1      17.812  94.356  84.354  0.00  0.00    +0.000 C 
ATOM      4  N2  UNL     1      16.637  94.901  83.948  0.00  0.00    +0.000 NA
ATOM      5  C3  UNL     1      15.757  93.898  84.141  0.00  0.00    +0.000 C 
ATOM      6  C4  UNL     1      16.377  92.806  84.644  0.00  0.00    +0.000 C 
ATOM      7  C5  UNL     1      15.652  91.660  84.944  0.00  0.00    +0.000 C 
ATOM      8  O1  UNL     1      16.226  90.649  85.433  0.00  0.00    +0.000 OA
ATOM      9  N3  UNL     1      14.296  91.666  84.704  0.00  0.00    +0.000 N 
ATOM     10  C6  UNL     1      13.679  92.807  84.217  0.00  0.00    +0.000 C 
ATOM     11  O2  UNL     1      12.425  92.825  84.064  0.00  0.00    +0.000 OA
ATOM     12  N4  UNL     1      14.418  93.929  83.904  0.00  0.00    +0.000 N 
ATOM     13  C7  UNL     1      13.770  95.151  83.409  0.00  0.00    +0.000 C 
ATOM     14  C8  UNL     1      13.487  90.484  85.046  0.00  0.00    +0.000 C 
ENDROOT
TORSDOF 0
ENDMDL
MODEL 9
REMARK VINA RESULT:      -2.8      1.638      2.483
REMARK  Name = .\Caffeine.pdb
REMARK  3 active torsions:
REMARK  status: ('A' for Active; 'I' for Inactive)
REMARK    1  A    between atoms: C1_1  and  N1_2
REMARK    2  A    between atoms: N3_9  and  C8_14
REMARK    3  A    between atoms: N4_12  and  C7_13
REMARK                            x       y       z     vdW  Elec       q    Type
REMARK                         _______ _______ _______ _____ _____    ______ ____
ROOT
ATOM      1  C1  UNL     1      16.251  90.475  83.750  0.00  0.00    +0.000 C 
ATOM      2  N1  UNL     1      16.448  91.556  84.711  0.00  0.00    +0.000 N 
ATOM      3  C2  UNL     1      17.610  91.911  85.313  0.00  0.00    +0.000 C 
ATOM      4  N2  UNL     1      17.468  92.950  86.175  0.00  0.00    +0.000 NA
ATOM      5  C3  UNL     1      16.154  93.238  86.085  0.00  0.00    +0.000 C 
ATOM      6  C4  UNL     1      15.538  92.406  85.214  0.00  0.00    +0.000 C 
ATOM      7  C5  UNL     1      14.173  92.509  84.986  0.00  0.00    +0.000 C 
ATOM      8  O1  UNL     1      13.595  91.719  84.190  0.00  0.00    +0.000 OA
ATOM      9  N3  UNL     1      13.472  93.484  85.660  0.00  0.00    +0.000 N 
ATOM     10  C6  UNL     1      14.119  94.304  86.570  0.00  0.00    +0.000 C 
ATOM     11  O2  UNL     1      13.456  95.151  87.234  0.00  0.00    +0.000 OA
ATOM     12  N4  UNL     1      15.480  94.203  86.768  0.00  0.00    +0.000 N 
ATOM     13  C7  UNL     1      16.171  95.052  87.747  0.00  0.00    +0.000 C 
ATOM     14  C8  UNL     1      12.016  93.599  85.475  0.00  0.00    +0.000 C 
ENDROOT
TORSDOF 0
ENDMDL
