MODEL 1
REMARK VINA RESULT:       9.3      0.000      0.000
REMARK  Name = .\Caffeine.pdb
REMARK  3 active torsions:
REMARK  status: ('A' for Active; 'I' for Inactive)
REMARK    1  A    between atoms: C1_1  and  N1_2
REMARK    2  A    between atoms: N3_9  and  C8_14
REMARK    3  A    between atoms: N4_12  and  C7_13
REMARK                            x       y       z     vdW  Elec       q    Type
REMARK                         _______ _______ _______ _____ _____    ______ ____
ROOT
ATOM      1  C1  UNL     1      -5.865  51.618  -2.777  0.00  0.00    +0.000 C 
ATOM      2  N1  UNL     1      -5.300  51.926  -4.087  0.00  0.00    +0.000 N 
ATOM      3  C2  UNL     1      -4.111  51.503  -4.583  0.00  0.00    +0.000 C 
ATOM      4  N2  UNL     1      -3.854  51.975  -5.830  0.00  0.00    +0.000 NA
ATOM      5  C3  UNL     1      -4.947  52.718  -6.101  0.00  0.00    +0.000 C 
ATOM      6  C4  UNL     1      -5.813  52.695  -5.062  0.00  0.00    +0.000 C 
ATOM      7  C5  UNL     1      -6.998  53.416  -5.116  0.00  0.00    +0.000 C 
ATOM      8  O1  UNL     1      -7.796  53.411  -4.139  0.00  0.00    +0.000 OA
ATOM      9  N3  UNL     1      -7.268  54.139  -6.257  0.00  0.00    +0.000 N 
ATOM     10  C6  UNL     1      -6.352  54.172  -7.295  0.00  0.00    +0.000 C 
ATOM     11  O2  UNL     1      -6.577  54.892  -8.308  0.00  0.00    +0.000 OA
ATOM     12  N4  UNL     1      -5.189  53.432  -7.233  0.00  0.00    +0.000 N 
ATOM     13  C7  UNL     1      -4.200  53.478  -8.318  0.00  0.00    +0.000 C 
ATOM     14  C8  UNL     1      -8.496  54.948  -6.337  0.00  0.00    +0.000 C 
ENDROOT
TORSDOF 0
ENDMDL
MODEL 2
REMARK VINA RESULT:       9.8      1.524      3.652
REMARK  Name = .\Caffeine.pdb
REMARK  3 active torsions:
REMARK  status: ('A' for Active; 'I' for Inactive)
REMARK    1  A    between atoms: C1_1  and  N1_2
REMARK    2  A    between atoms: N3_9  and  C8_14
REMARK    3  A    between atoms: N4_12  and  C7_13
REMARK                            x       y       z     vdW  Elec       q    Type
REMARK                         _______ _______ _______ _____ _____    ______ ____
ROOT
ATOM      1  C1  UNL     1      -7.281  55.289  -8.275  0.00  0.00    +0.000 C 
ATOM      2  N1  UNL     1      -6.279  54.383  -7.724  0.00  0.00    +0.000 N 
ATOM      3  C2  UNL     1      -5.129  53.979  -8.318  0.00  0.00    +0.000 C 
ATOM      4  N2  UNL     1      -4.410  53.114  -7.556  0.00  0.00    +0.000 NA
ATOM      5  C3  UNL     1      -5.164  52.993  -6.445  0.00  0.00    +0.000 C 
ATOM      6  C4  UNL     1      -6.284  53.747  -6.541  0.00  0.00    +0.000 C 
ATOM      7  C5  UNL     1      -7.220  53.752  -5.515  0.00  0.00    +0.000 C 
ATOM      8  O1  UNL     1      -8.274  54.438  -5.613  0.00  0.00    +0.000 OA
ATOM      9  N3  UNL     1      -6.968  52.982  -4.401  0.00  0.00    +0.000 N 
ATOM     10  C6  UNL     1      -5.829  52.196  -4.339  0.00  0.00    +0.000 C 
ATOM     11  O2  UNL     1      -5.640  51.442  -3.343  0.00  0.00    +0.000 OA
ATOM     12  N4  UNL     1      -4.899  52.220  -5.358  0.00  0.00    +0.000 N 
ATOM     13  C7  UNL     1      -3.701  51.372  -5.313  0.00  0.00    +0.000 C 
ATOM     14  C8  UNL     1      -7.954  52.931  -3.309  0.00  0.00    +0.000 C 
ENDROOT
TORSDOF 0
ENDMDL
MODEL 3
REMARK VINA RESULT:      10.6      2.060      2.395
REMARK  Name = .\Caffeine.pdb
REMARK  3 active torsions:
REMARK  status: ('A' for Active; 'I' for Inactive)
REMARK    1  A    between atoms: C1_1  and  N1_2
REMARK    2  A    between atoms: N3_9  and  C8_14
REMARK    3  A    between atoms: N4_12  and  C7_13
REMARK                            x       y       z     vdW  Elec       q    Type
REMARK                         _______ _______ _______ _____ _____    ______ ____
ROOT
ATOM      1  C1  UNL     1      -2.518  53.489  -2.613  0.00  0.00    +0.000 C 
ATOM      2  N1  UNL     1      -3.108  52.712  -3.699  0.00  0.00    +0.000 N 
ATOM      3  C2  UNL     1      -2.511  51.729  -4.417  0.00  0.00    +0.000 C 
ATOM      4  N2  UNL     1      -3.317  51.205  -5.376  0.00  0.00    +0.000 NA
ATOM      5  C3  UNL     1      -4.459  51.907  -5.226  0.00  0.00    +0.000 C 
ATOM      6  C4  UNL     1      -4.339  52.811  -4.227  0.00  0.00    +0.000 C 
ATOM      7  C5  UNL     1      -5.391  53.662  -3.917  0.00  0.00    +0.000 C 
ATOM      8  O1  UNL     1      -5.272  54.520  -2.999  0.00  0.00    +0.000 OA
ATOM      9  N3  UNL     1      -6.556  53.549  -4.643  0.00  0.00    +0.000 N 
ATOM     10  C6  UNL     1      -6.644  52.636  -5.681  0.00  0.00    +0.000 C 
ATOM     11  O2  UNL     1      -7.692  52.586  -6.386  0.00  0.00    +0.000 OA
ATOM     12  N4  UNL     1      -5.596  51.783  -5.962  0.00  0.00    +0.000 N 
ATOM     13  C7  UNL     1      -5.671  50.828  -7.075  0.00  0.00    +0.000 C 
ATOM     14  C8  UNL     1      -7.680  54.459  -4.370  0.00  0.00    +0.000 C 
ENDROOT
TORSDOF 0
ENDMDL
MODEL 4
REMARK VINA RESULT:      11.4      1.546      3.068
REMARK  Name = .\Caffeine.pdb
REMARK  3 active torsions:
REMARK  status: ('A' for Active; 'I' for Inactive)
REMARK    1  A    between atoms: C1_1  and  N1_2
REMARK    2  A    between atoms: N3_9  and  C8_14
REMARK    3  A    between atoms: N4_12  and  C7_13
REMARK                            x       y       z     vdW  Elec       q    Type
REMARK                         _______ _______ _______ _____ _____    ______ ____
ROOT
ATOM      1  C1  UNL     1      -2.575  51.428  -5.319  0.00  0.00    +0.000 C 
ATOM      2  N1  UNL     1      -3.877  51.812  -4.783  0.00  0.00    +0.000 N 
ATOM      3  C2  UNL     1      -4.387  51.489  -3.569  0.00  0.00    +0.000 C 
ATOM      4  N2  UNL     1      -5.637  51.980  -3.367  0.00  0.00    +0.000 NA
ATOM      5  C3  UNL     1      -5.892  52.635  -4.518  0.00  0.00    +0.000 C 
ATOM      6  C4  UNL     1      -4.845  52.535  -5.369  0.00  0.00    +0.000 C 
ATOM      7  C5  UNL     1      -4.903  53.117  -6.629  0.00  0.00    +0.000 C 
ATOM      8  O1  UNL     1      -3.935  53.006  -7.431  0.00  0.00    +0.000 OA
ATOM      9  N3  UNL     1      -6.044  53.803  -6.977  0.00  0.00    +0.000 N 
ATOM     10  C6  UNL     1      -7.115  53.866  -6.100  0.00  0.00    +0.000 C 
ATOM     11  O2  UNL     1      -8.183  54.440  -6.454  0.00  0.00    +0.000 OA
ATOM     12  N4  UNL     1      -7.032  53.301  -4.844  0.00  0.00    +0.000 N 
ATOM     13  C7  UNL     1      -8.169  53.342  -3.916  0.00  0.00    +0.000 C 
ATOM     14  C8  UNL     1      -6.160  54.400  -8.318  0.00  0.00    +0.000 C 
ENDROOT
TORSDOF 0
ENDMDL
MODEL 5
REMARK VINA RESULT:      11.5      2.533      4.613
REMARK  Name = .\Caffeine.pdb
REMARK  3 active torsions:
REMARK  status: ('A' for Active; 'I' for Inactive)
REMARK    1  A    between atoms: C1_1  and  N1_2
REMARK    2  A    between atoms: N3_9  and  C8_14
REMARK    3  A    between atoms: N4_12  and  C7_13
REMARK                            x       y       z     vdW  Elec       q    Type
REMARK                         _______ _______ _______ _____ _____    ______ ____
ROOT
ATOM      1  C1  UNL     1      -6.852  51.597  -7.165  0.00  0.00    +0.000 C 
ATOM      2  N1  UNL     1      -6.636  52.586  -6.113  0.00  0.00    +0.000 N 
ATOM      3  C2  UNL     1      -7.389  53.685  -5.859  0.00  0.00    +0.000 C 
ATOM      4  N2  UNL     1      -6.920  54.425  -4.821  0.00  0.00    +0.000 NA
ATOM      5  C3  UNL     1      -5.830  53.735  -4.428  0.00  0.00    +0.000 C 
ATOM      6  C4  UNL     1      -5.653  52.637  -5.199  0.00  0.00    +0.000 C 
ATOM      7  C5  UNL     1      -4.572  51.792  -4.985  0.00  0.00    +0.000 C 
ATOM      8  O1  UNL     1      -4.395  50.780  -5.717  0.00  0.00    +0.000 OA
ATOM      9  N3  UNL     1      -3.699  52.098  -3.965  0.00  0.00    +0.000 N 
ATOM     10  C6  UNL     1      -3.884  53.244  -3.209  0.00  0.00    +0.000 C 
ATOM     11  O2  UNL     1      -3.041  53.552  -2.320  0.00  0.00    +0.000 OA
ATOM     12  N4  UNL     1      -4.976  54.060  -3.421  0.00  0.00    +0.000 N 
ATOM     13  C7  UNL     1      -5.168  55.289  -2.641  0.00  0.00    +0.000 C 
ATOM     14  C8  UNL     1      -2.519  51.249  -3.732  0.00  0.00    +0.000 C 
ENDROOT
TORSDOF 0
ENDMDL
MODEL 6
REMARK VINA RESULT:      12.2      1.659      4.739
REMARK  Name = .\Caffeine.pdb
REMARK  3 active torsions:
REMARK  status: ('A' for Active; 'I' for Inactive)
REMARK    1  A    between atoms: C1_1  and  N1_2
REMARK    2  A    between atoms: N3_9  and  C8_14
REMARK    3  A    between atoms: N4_12  and  C7_13
REMARK                            x       y       z     vdW  Elec       q    Type
REMARK                         _______ _______ _______ _____ _____    ______ ____
ROOT
ATOM      1  C1  UNL     1      -6.710  55.235  -8.316  0.00  0.00    +0.000 C 
ATOM      2  N1  UNL     1      -7.190  54.690  -7.050  0.00  0.00    +0.000 N 
ATOM      3  C2  UNL     1      -8.340  55.010  -6.407  0.00  0.00    +0.000 C 
ATOM      4  N2  UNL     1      -8.500  54.344  -5.234  0.00  0.00    +0.000 NA
ATOM      5  C3  UNL     1      -7.390  53.581  -5.169  0.00  0.00    +0.000 C 
ATOM      6  C4  UNL     1      -6.602  53.786  -6.249  0.00  0.00    +0.000 C 
ATOM      7  C5  UNL     1      -5.390  53.119  -6.375  0.00  0.00    +0.000 C 
ATOM      8  O1  UNL     1      -4.645  53.326  -7.372  0.00  0.00    +0.000 OA
ATOM      9  N3  UNL     1      -5.025  52.240  -5.379  0.00  0.00    +0.000 N 
ATOM     10  C6  UNL     1      -5.834  52.070  -4.268  0.00  0.00    +0.000 C 
ATOM     11  O2  UNL     1      -5.459  51.314  -3.328  0.00  0.00    +0.000 OA
ATOM     12  N4  UNL     1      -7.045  52.725  -4.170  0.00  0.00    +0.000 N 
ATOM     13  C7  UNL     1      -7.899  52.569  -2.985  0.00  0.00    +0.000 C 
ATOM     14  C8  UNL     1      -3.730  51.544  -5.457  0.00  0.00    +0.000 C 
ENDROOT
TORSDOF 0
ENDMDL
