MODEL 1
REMARK VINA RESULT:      -4.2      0.000      0.000
REMARK  Name = .\Caffeine.pdb
REMARK  3 active torsions:
REMARK  status: ('A' for Active; 'I' for Inactive)
REMARK    1  A    between atoms: C1_1  and  N1_2
REMARK    2  A    between atoms: N3_9  and  C8_14
REMARK    3  A    between atoms: N4_12  and  C7_13
REMARK                            x       y       z     vdW  Elec       q    Type
REMARK                         _______ _______ _______ _____ _____    ______ ____
ROOT
ATOM      1  C1  UNL     1      22.781  82.640 102.167  0.00  0.00    +0.000 C 
ATOM      2  N1  UNL     1      22.101  81.568 102.887  0.00  0.00    +0.000 N 
ATOM      3  C2  UNL     1      22.247  81.243 104.195  0.00  0.00    +0.000 C 
ATOM      4  N2  UNL     1      21.489  80.180 104.568  0.00  0.00    +0.000 NA
ATOM      5  C3  UNL     1      20.850  79.850 103.427  0.00  0.00    +0.000 C 
ATOM      6  C4  UNL     1      21.215  80.674 102.418  0.00  0.00    +0.000 C 
ATOM      7  C5  UNL     1      20.696  80.498 101.142  0.00  0.00    +0.000 C 
ATOM      8  O1  UNL     1      21.052  81.253 100.196  0.00  0.00    +0.000 OA
ATOM      9  N3  UNL     1      19.797  79.475 100.941  0.00  0.00    +0.000 N 
ATOM     10  C6  UNL     1      19.462  78.625 101.983  0.00  0.00    +0.000 C 
ATOM     11  O2  UNL     1      18.689  77.648 101.772  0.00  0.00    +0.000 OA
ATOM     12  N4  UNL     1      19.971  78.828 103.249  0.00  0.00    +0.000 N 
ATOM     13  C7  UNL     1      19.641  77.920 104.355  0.00  0.00    +0.000 C 
ATOM     14  C8  UNL     1      19.254  79.231  99.594  0.00  0.00    +0.000 C 
ENDROOT
TORSDOF 0
ENDMDL
MODEL 2
REMARK VINA RESULT:      -4.1      0.911      3.381
REMARK  Name = .\Caffeine.pdb
REMARK  3 active torsions:
REMARK  status: ('A' for Active; 'I' for Inactive)
REMARK    1  A    between atoms: C1_1  and  N1_2
REMARK    2  A    between atoms: N3_9  and  C8_14
REMARK    3  A    between atoms: N4_12  and  C7_13
REMARK                            x       y       z     vdW  Elec       q    Type
REMARK                         _______ _______ _______ _____ _____    ______ ____
ROOT
ATOM      1  C1  UNL     1      19.006  78.027 105.277  0.00  0.00    +0.000 C 
ATOM      2  N1  UNL     1      19.908  79.030 104.720  0.00  0.00    +0.000 N 
ATOM      3  C2  UNL     1      20.770  79.822 105.404  0.00  0.00    +0.000 C 
ATOM      4  N2  UNL     1      21.464  80.672 104.604  0.00  0.00    +0.000 NA
ATOM      5  C3  UNL     1      20.998  80.374 103.374  0.00  0.00    +0.000 C 
ATOM      6  C4  UNL     1      20.065  79.396 103.438  0.00  0.00    +0.000 C 
ATOM      7  C5  UNL     1      19.432  78.950 102.285  0.00  0.00    +0.000 C 
ATOM      8  O1  UNL     1      18.547  78.053 102.346  0.00  0.00    +0.000 OA
ATOM      9  N3  UNL     1      19.789  79.522 101.084  0.00  0.00    +0.000 N 
ATOM     10  C6  UNL     1      20.724  80.543 101.048  0.00  0.00    +0.000 C 
ATOM     11  O2  UNL     1      20.996  81.107  99.951  0.00  0.00    +0.000 OA
ATOM     12  N4  UNL     1      21.359  80.958 102.200  0.00  0.00    +0.000 N 
ATOM     13  C7  UNL     1      22.335  82.056 102.176  0.00  0.00    +0.000 C 
ATOM     14  C8  UNL     1      19.112  79.104  99.845  0.00  0.00    +0.000 C 
ENDROOT
TORSDOF 0
ENDMDL
MODEL 3
REMARK VINA RESULT:      -3.8      1.596      3.646
REMARK  Name = .\Caffeine.pdb
REMARK  3 active torsions:
REMARK  status: ('A' for Active; 'I' for Inactive)
REMARK    1  A    between atoms: C1_1  and  N1_2
REMARK    2  A    between atoms: N3_9  and  C8_14
REMARK    3  A    between atoms: N4_12  and  C7_13
REMARK                            x       y       z     vdW  Elec       q    Type
REMARK                         _______ _______ _______ _____ _____    ______ ____
ROOT
ATOM      1  C1  UNL     1      19.220  79.162  99.487  0.00  0.00    +0.000 C 
ATOM      2  N1  UNL     1      19.340  78.995 100.932  0.00  0.00    +0.000 N 
ATOM      3  C2  UNL     1      18.637  78.140 101.715  0.00  0.00    +0.000 C 
ATOM      4  N2  UNL     1      18.963  78.231 103.031  0.00  0.00    +0.000 NA
ATOM      5  C3  UNL     1      19.913  79.188 103.040  0.00  0.00    +0.000 C 
ATOM      6  C4  UNL     1      20.140  79.650 101.788  0.00  0.00    +0.000 C 
ATOM      7  C5  UNL     1      21.065  80.662 101.568  0.00  0.00    +0.000 C 
ATOM      8  O1  UNL     1      21.262  81.108 100.405  0.00  0.00    +0.000 OA
ATOM      9  N3  UNL     1      21.748  81.167 102.653  0.00  0.00    +0.000 N 
ATOM     10  C6  UNL     1      21.476  80.698 103.928  0.00  0.00    +0.000 C 
ATOM     11  O2  UNL     1      22.058  81.214 104.923  0.00  0.00    +0.000 OA
ATOM     12  N4  UNL     1      20.569  79.677 104.126  0.00  0.00    +0.000 N 
ATOM     13  C7  UNL     1      20.257  79.190 105.475  0.00  0.00    +0.000 C 
ATOM     14  C8  UNL     1      22.709  82.267 102.466  0.00  0.00    +0.000 C 
ENDROOT
TORSDOF 0
ENDMDL
MODEL 4
REMARK VINA RESULT:      -3.6      2.234      4.447
REMARK  Name = .\Caffeine.pdb
REMARK  3 active torsions:
REMARK  status: ('A' for Active; 'I' for Inactive)
REMARK    1  A    between atoms: C1_1  and  N1_2
REMARK    2  A    between atoms: N3_9  and  C8_14
REMARK    3  A    between atoms: N4_12  and  C7_13
REMARK                            x       y       z     vdW  Elec       q    Type
REMARK                         _______ _______ _______ _____ _____    ______ ____
ROOT
ATOM      1  C1  UNL     1      16.958  78.685 104.331  0.00  0.00    +0.000 C 
ATOM      2  N1  UNL     1      17.953  79.414 103.550  0.00  0.00    +0.000 N 
ATOM      3  C2  UNL     1      17.737  80.496 102.761  0.00  0.00    +0.000 C 
ATOM      4  N2  UNL     1      18.864  80.940 102.146  0.00  0.00    +0.000 NA
ATOM      5  C3  UNL     1      19.806  80.084 102.589  0.00  0.00    +0.000 C 
ATOM      6  C4  UNL     1      19.267  79.167 103.426  0.00  0.00    +0.000 C 
ATOM      7  C5  UNL     1      20.056  78.169 103.981  0.00  0.00    +0.000 C 
ATOM      8  O1  UNL     1      19.550  77.302 104.745  0.00  0.00    +0.000 OA
ATOM      9  N3  UNL     1      21.397  78.149 103.666  0.00  0.00    +0.000 N 
ATOM     10  C6  UNL     1      21.920  79.080 102.783  0.00  0.00    +0.000 C 
ATOM     11  O2  UNL     1      23.136  79.012 102.447  0.00  0.00    +0.000 OA
ATOM     12  N4  UNL     1      21.125  80.078 102.258  0.00  0.00    +0.000 N 
ATOM     13  C7  UNL     1      21.664  81.054 101.303  0.00  0.00    +0.000 C 
ATOM     14  C8  UNL     1      22.259  77.084 104.204  0.00  0.00    +0.000 C 
ENDROOT
TORSDOF 0
ENDMDL
MODEL 5
REMARK VINA RESULT:      -3.6      1.678      3.896
REMARK  Name = .\Caffeine.pdb
REMARK  3 active torsions:
REMARK  status: ('A' for Active; 'I' for Inactive)
REMARK    1  A    between atoms: C1_1  and  N1_2
REMARK    2  A    between atoms: N3_9  and  C8_14
REMARK    3  A    between atoms: N4_12  and  C7_13
REMARK                            x       y       z     vdW  Elec       q    Type
REMARK                         _______ _______ _______ _____ _____    ______ ____
ROOT
ATOM      1  C1  UNL     1      19.059  78.988  99.621  0.00  0.00    +0.000 C 
ATOM      2  N1  UNL     1      19.858  79.757 100.571  0.00  0.00    +0.000 N 
ATOM      3  C2  UNL     1      20.793  80.694 100.279  0.00  0.00    +0.000 C 
ATOM      4  N2  UNL     1      21.381  81.222 101.383  0.00  0.00    +0.000 NA
ATOM      5  C3  UNL     1      20.766  80.572 102.392  0.00  0.00    +0.000 C 
ATOM      6  C4  UNL     1      19.857  79.692 101.912  0.00  0.00    +0.000 C 
ATOM      7  C5  UNL     1      19.124  78.893 102.779  0.00  0.00    +0.000 C 
ATOM      8  O1  UNL     1      18.291  78.058 102.331  0.00  0.00    +0.000 OA
ATOM      9  N3  UNL     1      19.340  79.032 104.132  0.00  0.00    +0.000 N 
ATOM     10  C6  UNL     1      20.298  79.918 104.598  0.00  0.00    +0.000 C 
ATOM     11  O2  UNL     1      20.537  79.990 105.836  0.00  0.00    +0.000 OA
ATOM     12  N4  UNL     1      21.002  80.719 103.723  0.00  0.00    +0.000 N 
ATOM     13  C7  UNL     1      22.036  81.644 104.205  0.00  0.00    +0.000 C 
ATOM     14  C8  UNL     1      18.610  78.176 105.082  0.00  0.00    +0.000 C 
ENDROOT
TORSDOF 0
ENDMDL
MODEL 6
REMARK VINA RESULT:      -3.5      2.244      3.969
REMARK  Name = .\Caffeine.pdb
REMARK  3 active torsions:
REMARK  status: ('A' for Active; 'I' for Inactive)
REMARK    1  A    between atoms: C1_1  and  N1_2
REMARK    2  A    between atoms: N3_9  and  C8_14
REMARK    3  A    between atoms: N4_12  and  C7_13
REMARK                            x       y       z     vdW  Elec       q    Type
REMARK                         _______ _______ _______ _____ _____    ______ ____
ROOT
ATOM      1  C1  UNL     1      22.115  76.538 105.214  0.00  0.00    +0.000 C 
ATOM      2  N1  UNL     1      21.942  77.506 104.135  0.00  0.00    +0.000 N 
ATOM      3  C2  UNL     1      22.906  77.996 103.317  0.00  0.00    +0.000 C 
ATOM      4  N2  UNL     1      22.435  78.900 102.420  0.00  0.00    +0.000 NA
ATOM      5  C3  UNL     1      21.119  78.955 102.711  0.00  0.00    +0.000 C 
ATOM      6  C4  UNL     1      20.819  78.126 103.737  0.00  0.00    +0.000 C 
ATOM      7  C5  UNL     1      19.520  78.044 104.221  0.00  0.00    +0.000 C 
ATOM      8  O1  UNL     1      19.245  77.287 105.191  0.00  0.00    +0.000 OA
ATOM      9  N3  UNL     1      18.552  78.817 103.619  0.00  0.00    +0.000 N 
ATOM     10  C6  UNL     1      18.889  79.680 102.589  0.00  0.00    +0.000 C 
ATOM     11  O2  UNL     1      18.008  80.435 102.089  0.00  0.00    +0.000 OA
ATOM     12  N4  UNL     1      20.181  79.733 102.108  0.00  0.00    +0.000 N 
ATOM     13  C7  UNL     1      20.553  80.662 101.033  0.00  0.00    +0.000 C 
ATOM     14  C8  UNL     1      17.171  78.787 104.128  0.00  0.00    +0.000 C 
ENDROOT
TORSDOF 0
ENDMDL
MODEL 7
REMARK VINA RESULT:      -3.4      2.558      3.536
REMARK  Name = .\Caffeine.pdb
REMARK  3 active torsions:
REMARK  status: ('A' for Active; 'I' for Inactive)
REMARK    1  A    between atoms: C1_1  and  N1_2
REMARK    2  A    between atoms: N3_9  and  C8_14
REMARK    3  A    between atoms: N4_12  and  C7_13
REMARK                            x       y       z     vdW  Elec       q    Type
REMARK                         _______ _______ _______ _____ _____    ______ ____
ROOT
ATOM      1  C1  UNL     1      19.258  83.224 104.820  0.00  0.00    +0.000 C 
ATOM      2  N1  UNL     1      19.014  82.095 103.928  0.00  0.00    +0.000 N 
ATOM      3  C2  UNL     1      17.897  81.859 103.197  0.00  0.00    +0.000 C 
ATOM      4  N2  UNL     1      17.964  80.710 102.476  0.00  0.00    +0.000 NA
ATOM      5  C3  UNL     1      19.186  80.231 102.787  0.00  0.00    +0.000 C 
ATOM      6  C4  UNL     1      19.817  81.053 103.657  0.00  0.00    +0.000 C 
ATOM      7  C5  UNL     1      21.082  80.737 104.133  0.00  0.00    +0.000 C 
ATOM      8  O1  UNL     1      21.662  81.492 104.960  0.00  0.00    +0.000 OA
ATOM      9  N3  UNL     1      21.676  79.578 103.685  0.00  0.00    +0.000 N 
ATOM     10  C6  UNL     1      20.997  78.737 102.818  0.00  0.00    +0.000 C 
ATOM     11  O2  UNL     1      21.521  77.643 102.466  0.00  0.00    +0.000 OA
ATOM     12  N4  UNL     1      19.749  79.077 102.338  0.00  0.00    +0.000 N 
ATOM     13  C7  UNL     1      19.012  78.182 101.437  0.00  0.00    +0.000 C 
ATOM     14  C8  UNL     1      23.000  79.189 104.196  0.00  0.00    +0.000 C 
ENDROOT
TORSDOF 0
ENDMDL
MODEL 8
REMARK VINA RESULT:      -3.4      2.200      3.228
REMARK  Name = .\Caffeine.pdb
REMARK  3 active torsions:
REMARK  status: ('A' for Active; 'I' for Inactive)
REMARK    1  A    between atoms: C1_1  and  N1_2
REMARK    2  A    between atoms: N3_9  and  C8_14
REMARK    3  A    between atoms: N4_12  and  C7_13
REMARK                            x       y       z     vdW  Elec       q    Type
REMARK                         _______ _______ _______ _____ _____    ______ ____
ROOT
ATOM      1  C1  UNL     1      22.921  77.741 102.845  0.00  0.00    +0.000 C 
ATOM      2  N1  UNL     1      22.402  79.072 103.144  0.00  0.00    +0.000 N 
ATOM      3  C2  UNL     1      23.122  80.177 103.458  0.00  0.00    +0.000 C 
ATOM      4  N2  UNL     1      22.348  81.266 103.703  0.00  0.00    +0.000 NA
ATOM      5  C3  UNL     1      21.098  80.793 103.524  0.00  0.00    +0.000 C 
ATOM      6  C4  UNL     1      21.124  79.481 103.193  0.00  0.00    +0.000 C 
ATOM      7  C5  UNL     1      19.941  78.783 102.988  0.00  0.00    +0.000 C 
ATOM      8  O1  UNL     1      19.964  77.555 102.700  0.00  0.00    +0.000 OA
ATOM      9  N3  UNL     1      18.752  79.466 103.118  0.00  0.00    +0.000 N 
ATOM     10  C6  UNL     1      18.751  80.801 103.487  0.00  0.00    +0.000 C 
ATOM     11  O2  UNL     1      17.653  81.400 103.670  0.00  0.00    +0.000 OA
ATOM     12  N4  UNL     1      19.936  81.484 103.667  0.00  0.00    +0.000 N 
ATOM     13  C7  UNL     1      19.945  82.893 104.081  0.00  0.00    +0.000 C 
ATOM     14  C8  UNL     1      17.476  78.751 102.946  0.00  0.00    +0.000 C 
ENDROOT
TORSDOF 0
ENDMDL
MODEL 9
REMARK VINA RESULT:      -3.2      2.185      4.684
REMARK  Name = .\Caffeine.pdb
REMARK  3 active torsions:
REMARK  status: ('A' for Active; 'I' for Inactive)
REMARK    1  A    between atoms: C1_1  and  N1_2
REMARK    2  A    between atoms: N3_9  and  C8_14
REMARK    3  A    between atoms: N4_12  and  C7_13
REMARK                            x       y       z     vdW  Elec       q    Type
REMARK                         _______ _______ _______ _____ _____    ______ ____
ROOT
ATOM      1  C1  UNL     1      17.664  79.037 105.245  0.00  0.00    +0.000 C 
ATOM      2  N1  UNL     1      18.281  79.363 103.963  0.00  0.00    +0.000 N 
ATOM      3  C2  UNL     1      17.891  78.932 102.738  0.00  0.00    +0.000 C 
ATOM      4  N2  UNL     1      18.680  79.394 101.734  0.00  0.00    +0.000 NA
ATOM      5  C3  UNL     1      19.590  80.144 102.388  0.00  0.00    +0.000 C 
ATOM      6  C4  UNL     1      19.358  80.127 103.721  0.00  0.00    +0.000 C 
ATOM      7  C5  UNL     1      20.194  80.814 104.591  0.00  0.00    +0.000 C 
ATOM      8  O1  UNL     1      19.991  80.780 105.835  0.00  0.00    +0.000 OA
ATOM      9  N3  UNL     1      21.250  81.519 104.058  0.00  0.00    +0.000 N 
ATOM     10  C6  UNL     1      21.485  81.498 102.693  0.00  0.00    +0.000 C 
ATOM     11  O2  UNL     1      22.495  82.091 102.220  0.00  0.00    +0.000 OA
ATOM     12  N4  UNL     1      20.632  80.827 101.841  0.00  0.00    +0.000 N 
ATOM     13  C7  UNL     1      20.885  80.778 100.395  0.00  0.00    +0.000 C 
ATOM     14  C8  UNL     1      22.181  82.229 104.950  0.00  0.00    +0.000 C 
ENDROOT
TORSDOF 0
ENDMDL
