MODEL 1
REMARK VINA RESULT:      -3.8      0.000      0.000
REMARK  Name = .\Caffeine.pdb
REMARK  3 active torsions:
REMARK  status: ('A' for Active; 'I' for Inactive)
REMARK    1  A    between atoms: C1_1  and  N1_2
REMARK    2  A    between atoms: N3_9  and  C8_14
REMARK    3  A    between atoms: N4_12  and  C7_13
REMARK                            x       y       z     vdW  Elec       q    Type
REMARK                         _______ _______ _______ _____ _____    ______ ____
ROOT
ATOM      1  C1  UNL     1       6.651  65.511  42.813  0.00  0.00    +0.000 C 
ATOM      2  N1  UNL     1       5.355  64.904  42.523  0.00  0.00    +0.000 N 
ATOM      3  C2  UNL     1       4.492  64.359  43.415  0.00  0.00    +0.000 C 
ATOM      4  N2  UNL     1       3.372  63.856  42.834  0.00  0.00    +0.000 NA
ATOM      5  C3  UNL     1       3.570  64.114  41.525  0.00  0.00    +0.000 C 
ATOM      6  C4  UNL     1       4.755  64.738  41.333  0.00  0.00    +0.000 C 
ATOM      7  C5  UNL     1       5.174  65.075  40.053  0.00  0.00    +0.000 C 
ATOM      8  O1  UNL     1       6.289  65.638  39.871  0.00  0.00    +0.000 OA
ATOM      9  N3  UNL     1       4.347  64.770  38.995  0.00  0.00    +0.000 N 
ATOM     10  C6  UNL     1       3.152  64.104  39.215  0.00  0.00    +0.000 C 
ATOM     11  O2  UNL     1       2.431  63.767  38.233  0.00  0.00    +0.000 OA
ATOM     12  N4  UNL     1       2.741  63.795  40.495  0.00  0.00    +0.000 N 
ATOM     13  C7  UNL     1       1.488  63.069  40.736  0.00  0.00    +0.000 C 
ATOM     14  C8  UNL     1       4.773  65.077  37.620  0.00  0.00    +0.000 C 
ENDROOT
TORSDOF 0
ENDMDL
MODEL 2
REMARK VINA RESULT:      -3.7      1.617      3.660
REMARK  Name = .\Caffeine.pdb
REMARK  3 active torsions:
REMARK  status: ('A' for Active; 'I' for Inactive)
REMARK    1  A    between atoms: C1_1  and  N1_2
REMARK    2  A    between atoms: N3_9  and  C8_14
REMARK    3  A    between atoms: N4_12  and  C7_13
REMARK                            x       y       z     vdW  Elec       q    Type
REMARK                         _______ _______ _______ _____ _____    ______ ____
ROOT
ATOM      1  C1  UNL     1       5.584  65.547  37.072  0.00  0.00    +0.000 C 
ATOM      2  N1  UNL     1       4.529  64.885  37.833  0.00  0.00    +0.000 N 
ATOM      3  C2  UNL     1       3.403  64.313  37.339  0.00  0.00    +0.000 C 
ATOM      4  N2  UNL     1       2.602  63.792  38.304  0.00  0.00    +0.000 NA
ATOM      5  C3  UNL     1       3.282  64.061  39.437  0.00  0.00    +0.000 C 
ATOM      6  C4  UNL     1       4.433  64.717  39.162  0.00  0.00    +0.000 C 
ATOM      7  C5  UNL     1       5.279  65.116  40.188  0.00  0.00    +0.000 C 
ATOM      8  O1  UNL     1       6.342  65.746  39.933  0.00  0.00    +0.000 OA
ATOM      9  N3  UNL     1       4.919  64.815  41.483  0.00  0.00    +0.000 N 
ATOM     10  C6  UNL     1       3.721  64.169  41.741  0.00  0.00    +0.000 C 
ATOM     11  O2  UNL     1       3.367  63.958  42.935  0.00  0.00    +0.000 OA
ATOM     12  N4  UNL     1       2.902  63.761  40.708  0.00  0.00    +0.000 N 
ATOM     13  C7  UNL     1       1.620  63.097  40.972  0.00  0.00    +0.000 C 
ATOM     14  C8  UNL     1       5.770  65.255  42.600  0.00  0.00    +0.000 C 
ENDROOT
TORSDOF 0
ENDMDL
MODEL 3
REMARK VINA RESULT:      -3.6      1.523      2.993
REMARK  Name = .\Caffeine.pdb
REMARK  3 active torsions:
REMARK  status: ('A' for Active; 'I' for Inactive)
REMARK    1  A    between atoms: C1_1  and  N1_2
REMARK    2  A    between atoms: N3_9  and  C8_14
REMARK    3  A    between atoms: N4_12  and  C7_13
REMARK                            x       y       z     vdW  Elec       q    Type
REMARK                         _______ _______ _______ _____ _____    ______ ____
ROOT
ATOM      1  C1  UNL     1       5.674  64.995  43.675  0.00  0.00    +0.000 C 
ATOM      2  N1  UNL     1       5.616  65.073  42.219  0.00  0.00    +0.000 N 
ATOM      3  C2  UNL     1       6.522  65.657  41.396  0.00  0.00    +0.000 C 
ATOM      4  N2  UNL     1       6.179  65.582  40.085  0.00  0.00    +0.000 NA
ATOM      5  C3  UNL     1       5.007  64.916  40.118  0.00  0.00    +0.000 C 
ATOM      6  C4  UNL     1       4.664  64.612  41.392  0.00  0.00    +0.000 C 
ATOM      7  C5  UNL     1       3.476  63.945  41.661  0.00  0.00    +0.000 C 
ATOM      8  O1  UNL     1       3.146  63.680  42.850  0.00  0.00    +0.000 OA
ATOM      9  N3  UNL     1       2.671  63.596  40.601  0.00  0.00    +0.000 N 
ATOM     10  C6  UNL     1       3.028  63.945  39.309  0.00  0.00    +0.000 C 
ATOM     11  O2  UNL     1       2.251  63.680  38.349  0.00  0.00    +0.000 OA
ATOM     12  N4  UNL     1       4.223  64.588  39.057  0.00  0.00    +0.000 N 
ATOM     13  C7  UNL     1       4.600  64.983  37.694  0.00  0.00    +0.000 C 
ATOM     14  C8  UNL     1       1.385  62.923  40.849  0.00  0.00    +0.000 C 
ENDROOT
TORSDOF 0
ENDMDL
MODEL 4
REMARK VINA RESULT:      -3.6      1.258      3.419
REMARK  Name = .\Caffeine.pdb
REMARK  3 active torsions:
REMARK  status: ('A' for Active; 'I' for Inactive)
REMARK    1  A    between atoms: C1_1  and  N1_2
REMARK    2  A    between atoms: N3_9  and  C8_14
REMARK    3  A    between atoms: N4_12  and  C7_13
REMARK                            x       y       z     vdW  Elec       q    Type
REMARK                         _______ _______ _______ _____ _____    ______ ____
ROOT
ATOM      1  C1  UNL     1       1.721  62.846  40.987  0.00  0.00    +0.000 C 
ATOM      2  N1  UNL     1       2.989  63.563  41.084  0.00  0.00    +0.000 N 
ATOM      3  C2  UNL     1       3.754  63.722  42.192  0.00  0.00    +0.000 C 
ATOM      4  N2  UNL     1       4.872  64.458  41.967  0.00  0.00    +0.000 NA
ATOM      5  C3  UNL     1       4.778  64.756  40.655  0.00  0.00    +0.000 C 
ATOM      6  C4  UNL     1       3.653  64.226  40.123  0.00  0.00    +0.000 C 
ATOM      7  C5  UNL     1       3.342  64.431  38.785  0.00  0.00    +0.000 C 
ATOM      8  O1  UNL     1       2.282  63.955  38.293  0.00  0.00    +0.000 OA
ATOM      9  N3  UNL     1       4.214  65.174  38.021  0.00  0.00    +0.000 N 
ATOM     10  C6  UNL     1       5.344  65.731  38.596  0.00  0.00    +0.000 C 
ATOM     11  O2  UNL     1       6.103  66.467  37.903  0.00  0.00    +0.000 OA
ATOM     12  N4  UNL     1       5.649  65.499  39.921  0.00  0.00    +0.000 N 
ATOM     13  C7  UNL     1       6.832  66.105  40.546  0.00  0.00    +0.000 C 
ATOM     14  C8  UNL     1       3.900  65.447  36.608  0.00  0.00    +0.000 C 
ENDROOT
TORSDOF 0
ENDMDL
MODEL 5
REMARK VINA RESULT:      -3.6      2.809      3.309
REMARK  Name = .\Caffeine.pdb
REMARK  3 active torsions:
REMARK  status: ('A' for Active; 'I' for Inactive)
REMARK    1  A    between atoms: C1_1  and  N1_2
REMARK    2  A    between atoms: N3_9  and  C8_14
REMARK    3  A    between atoms: N4_12  and  C7_13
REMARK                            x       y       z     vdW  Elec       q    Type
REMARK                         _______ _______ _______ _____ _____    ______ ____
ROOT
ATOM      1  C1  UNL     1       6.445  63.686  45.183  0.00  0.00    +0.000 C 
ATOM      2  N1  UNL     1       5.368  63.793  44.203  0.00  0.00    +0.000 N 
ATOM      3  C2  UNL     1       4.382  64.723  44.174  0.00  0.00    +0.000 C 
ATOM      4  N2  UNL     1       3.513  64.546  43.145  0.00  0.00    +0.000 NA
ATOM      5  C3  UNL     1       4.003  63.456  42.521  0.00  0.00    +0.000 C 
ATOM      6  C4  UNL     1       5.110  62.999  43.151  0.00  0.00    +0.000 C 
ATOM      7  C5  UNL     1       5.765  61.864  42.691  0.00  0.00    +0.000 C 
ATOM      8  O1  UNL     1       6.784  61.426  43.291  0.00  0.00    +0.000 OA
ATOM      9  N3  UNL     1       5.264  61.231  41.575  0.00  0.00    +0.000 N 
ATOM     10  C6  UNL     1       4.112  61.700  40.965  0.00  0.00    +0.000 C 
ATOM     11  O2  UNL     1       3.622  61.074  39.983  0.00  0.00    +0.000 OA
ATOM     12  N4  UNL     1       3.486  62.842  41.423  0.00  0.00    +0.000 N 
ATOM     13  C7  UNL     1       2.252  63.333  40.798  0.00  0.00    +0.000 C 
ATOM     14  C8  UNL     1       5.908  60.003  41.080  0.00  0.00    +0.000 C 
ENDROOT
TORSDOF 0
ENDMDL
MODEL 6
REMARK VINA RESULT:      -3.5      1.763      4.108
REMARK  Name = .\Caffeine.pdb
REMARK  3 active torsions:
REMARK  status: ('A' for Active; 'I' for Inactive)
REMARK    1  A    between atoms: C1_1  and  N1_2
REMARK    2  A    between atoms: N3_9  and  C8_14
REMARK    3  A    between atoms: N4_12  and  C7_13
REMARK                            x       y       z     vdW  Elec       q    Type
REMARK                         _______ _______ _______ _____ _____    ______ ____
ROOT
ATOM      1  C1  UNL     1       5.149  65.618  36.109  0.00  0.00    +0.000 C 
ATOM      2  N1  UNL     1       5.405  65.569  37.545  0.00  0.00    +0.000 N 
ATOM      3  C2  UNL     1       6.488  66.060  38.198  0.00  0.00    +0.000 C 
ATOM      4  N2  UNL     1       6.446  65.843  39.538  0.00  0.00    +0.000 NA
ATOM      5  C3  UNL     1       5.278  65.190  39.701  0.00  0.00    +0.000 C 
ATOM      6  C4  UNL     1       4.653  65.021  38.513  0.00  0.00    +0.000 C 
ATOM      7  C5  UNL     1       3.440  64.347  38.445  0.00  0.00    +0.000 C 
ATOM      8  O1  UNL     1       2.868  64.170  37.334  0.00  0.00    +0.000 OA
ATOM      9  N3  UNL     1       2.892  63.872  39.615  0.00  0.00    +0.000 N 
ATOM     10  C6  UNL     1       3.566  64.032  40.815  0.00  0.00    +0.000 C 
ATOM     11  O2  UNL     1       3.089  63.534  41.874  0.00  0.00    +0.000 OA
ATOM     12  N4  UNL     1       4.759  64.722  40.868  0.00  0.00    +0.000 N 
ATOM     13  C7  UNL     1       5.492  64.877  42.131  0.00  0.00    +0.000 C 
ATOM     14  C8  UNL     1       1.628  63.119  39.579  0.00  0.00    +0.000 C 
ENDROOT
TORSDOF 0
ENDMDL
MODEL 7
REMARK VINA RESULT:      -3.5      2.908      4.858
REMARK  Name = .\Caffeine.pdb
REMARK  3 active torsions:
REMARK  status: ('A' for Active; 'I' for Inactive)
REMARK    1  A    between atoms: C1_1  and  N1_2
REMARK    2  A    between atoms: N3_9  and  C8_14
REMARK    3  A    between atoms: N4_12  and  C7_13
REMARK                            x       y       z     vdW  Elec       q    Type
REMARK                         _______ _______ _______ _____ _____    ______ ____
ROOT
ATOM      1  C1  UNL     1       3.567  61.426  39.490  0.00  0.00    +0.000 C 
ATOM      2  N1  UNL     1       3.568  62.480  40.499  0.00  0.00    +0.000 N 
ATOM      3  C2  UNL     1       2.860  63.636  40.472  0.00  0.00    +0.000 C 
ATOM      4  N2  UNL     1       3.089  64.427  41.552  0.00  0.00    +0.000 NA
ATOM      5  C3  UNL     1       3.978  63.709  42.268  0.00  0.00    +0.000 C 
ATOM      6  C4  UNL     1       4.271  62.546  41.642  0.00  0.00    +0.000 C 
ATOM      7  C5  UNL     1       5.188  61.660  42.193  0.00  0.00    +0.000 C 
ATOM      8  O1  UNL     1       5.476  60.585  41.599  0.00  0.00    +0.000 OA
ATOM      9  N3  UNL     1       5.775  61.995  43.392  0.00  0.00    +0.000 N 
ATOM     10  C6  UNL     1       5.482  63.205  43.999  0.00  0.00    +0.000 C 
ATOM     11  O2  UNL     1       6.077  63.534  45.064  0.00  0.00    +0.000 OA
ATOM     12  N4  UNL     1       4.553  64.063  43.448  0.00  0.00    +0.000 N 
ATOM     13  C7  UNL     1       4.253  65.359  44.071  0.00  0.00    +0.000 C 
ATOM     14  C8  UNL     1       6.782  61.101  43.989  0.00  0.00    +0.000 C 
ENDROOT
TORSDOF 0
ENDMDL
MODEL 8
REMARK VINA RESULT:      -3.5      1.445      1.518
REMARK  Name = .\Caffeine.pdb
REMARK  3 active torsions:
REMARK  status: ('A' for Active; 'I' for Inactive)
REMARK    1  A    between atoms: C1_1  and  N1_2
REMARK    2  A    between atoms: N3_9  and  C8_14
REMARK    3  A    between atoms: N4_12  and  C7_13
REMARK                            x       y       z     vdW  Elec       q    Type
REMARK                         _______ _______ _______ _____ _____    ______ ____
ROOT
ATOM      1  C1  UNL     1       6.463  66.448  44.357  0.00  0.00    +0.000 C 
ATOM      2  N1  UNL     1       5.383  65.663  43.766  0.00  0.00    +0.000 N 
ATOM      3  C2  UNL     1       4.335  65.099  44.414  0.00  0.00    +0.000 C 
ATOM      4  N2  UNL     1       3.504  64.412  43.589  0.00  0.00    +0.000 NA
ATOM      5  C3  UNL     1       4.080  64.574  42.380  0.00  0.00    +0.000 C 
ATOM      6  C4  UNL     1       5.205  65.318  42.480  0.00  0.00    +0.000 C 
ATOM      7  C5  UNL     1       5.974  65.588  41.356  0.00  0.00    +0.000 C 
ATOM      8  O1  UNL     1       7.035  66.265  41.452  0.00  0.00    +0.000 OA
ATOM      9  N3  UNL     1       5.552  65.090  40.144  0.00  0.00    +0.000 N 
ATOM     10  C6  UNL     1       4.413  64.305  40.071  0.00  0.00    +0.000 C 
ATOM     11  O2  UNL     1       4.071  63.795  38.967  0.00  0.00    +0.000 OA
ATOM     12  N4  UNL     1       3.649  64.064  41.195  0.00  0.00    +0.000 N 
ATOM     13  C7  UNL     1       2.453  63.214  41.133  0.00  0.00    +0.000 C 
ATOM     14  C8  UNL     1       6.360  65.321  38.935  0.00  0.00    +0.000 C 
ENDROOT
TORSDOF 0
ENDMDL
MODEL 9
REMARK VINA RESULT:      -3.5      2.470      3.817
REMARK  Name = .\Caffeine.pdb
REMARK  3 active torsions:
REMARK  status: ('A' for Active; 'I' for Inactive)
REMARK    1  A    between atoms: C1_1  and  N1_2
REMARK    2  A    between atoms: N3_9  and  C8_14
REMARK    3  A    between atoms: N4_12  and  C7_13
REMARK                            x       y       z     vdW  Elec       q    Type
REMARK                         _______ _______ _______ _____ _____    ______ ____
ROOT
ATOM      1  C1  UNL     1       1.932  62.936  41.015  0.00  0.00    +0.000 C 
ATOM      2  N1  UNL     1       3.339  62.699  40.707  0.00  0.00    +0.000 N 
ATOM      3  C2  UNL     1       4.279  62.180  41.534  0.00  0.00    +0.000 C 
ATOM      4  N2  UNL     1       5.508  62.100  40.962  0.00  0.00    +0.000 NA
ATOM      5  C3  UNL     1       5.297  62.594  39.725  0.00  0.00    +0.000 C 
ATOM      6  C4  UNL     1       4.003  62.957  39.568  0.00  0.00    +0.000 C 
ATOM      7  C5  UNL     1       3.568  63.518  38.374  0.00  0.00    +0.000 C 
ATOM      8  O1  UNL     1       2.366  63.876  38.235  0.00  0.00    +0.000 OA
ATOM      9  N3  UNL     1       4.484  63.679  37.359  0.00  0.00    +0.000 N 
ATOM     10  C6  UNL     1       5.810  63.328  37.554  0.00  0.00    +0.000 C 
ATOM     11  O2  UNL     1       6.657  63.542  36.642  0.00  0.00    +0.000 OA
ATOM     12  N4  UNL     1       6.220  62.752  38.739  0.00  0.00    +0.000 N 
ATOM     13  C7  UNL     1       7.628  62.398  38.965  0.00  0.00    +0.000 C 
ATOM     14  C8  UNL     1       4.071  64.305  36.092  0.00  0.00    +0.000 C 
ENDROOT
TORSDOF 0
ENDMDL
