MODEL 1
REMARK VINA RESULT:      -4.0      0.000      0.000
REMARK  Name = .\Caffeine.pdb
REMARK  3 active torsions:
REMARK  status: ('A' for Active; 'I' for Inactive)
REMARK    1  A    between atoms: C1_1  and  N1_2
REMARK    2  A    between atoms: N3_9  and  C8_14
REMARK    3  A    between atoms: N4_12  and  C7_13
REMARK                            x       y       z     vdW  Elec       q    Type
REMARK                         _______ _______ _______ _____ _____    ______ ____
ROOT
ATOM      1  C1  UNL     1       8.844  57.440  -3.188  0.00  0.00    +0.000 C 
ATOM      2  N1  UNL     1       9.534  58.305  -2.236  0.00  0.00    +0.000 N 
ATOM      3  C2  UNL     1       9.926  59.587  -2.433  0.00  0.00    +0.000 C 
ATOM      4  N2  UNL     1      10.565  60.122  -1.360  0.00  0.00    +0.000 NA
ATOM      5  C3  UNL     1      10.554  59.109  -0.469  0.00  0.00    +0.000 C 
ATOM      6  C4  UNL     1       9.942  58.020  -0.988  0.00  0.00    +0.000 C 
ATOM      7  C5  UNL     1       9.841  56.849  -0.248  0.00  0.00    +0.000 C 
ATOM      8  O1  UNL     1       9.289  55.826  -0.739  0.00  0.00    +0.000 OA
ATOM      9  N3  UNL     1      10.367  56.836   1.025  0.00  0.00    +0.000 N 
ATOM     10  C6  UNL     1      11.015  57.955   1.522  0.00  0.00    +0.000 C 
ATOM     11  O2  UNL     1      11.554  57.912   2.665  0.00  0.00    +0.000 OA
ATOM     12  N4  UNL     1      11.088  59.116   0.782  0.00  0.00    +0.000 N 
ATOM     13  C7  UNL     1      11.793  60.300   1.291  0.00  0.00    +0.000 C 
ATOM     14  C8  UNL     1      10.314  55.602   1.826  0.00  0.00    +0.000 C 
ENDROOT
TORSDOF 0
ENDMDL
MODEL 2
REMARK VINA RESULT:      -4.0      1.495      3.011
REMARK  Name = .\Caffeine.pdb
REMARK  3 active torsions:
REMARK  status: ('A' for Active; 'I' for Inactive)
REMARK    1  A    between atoms: C1_1  and  N1_2
REMARK    2  A    between atoms: N3_9  and  C8_14
REMARK    3  A    between atoms: N4_12  and  C7_13
REMARK                            x       y       z     vdW  Elec       q    Type
REMARK                         _______ _______ _______ _____ _____    ______ ____
ROOT
ATOM      1  C1  UNL     1       9.107  58.509  -3.087  0.00  0.00    +0.000 C 
ATOM      2  N1  UNL     1       9.327  57.651  -1.926  0.00  0.00    +0.000 N 
ATOM      3  C2  UNL     1       8.870  56.387  -1.748  0.00  0.00    +0.000 C 
ATOM      4  N2  UNL     1       9.226  55.855  -0.550  0.00  0.00    +0.000 NA
ATOM      5  C3  UNL     1       9.937  56.849   0.021  0.00  0.00    +0.000 C 
ATOM      6  C4  UNL     1       9.998  57.926  -0.795  0.00  0.00    +0.000 C 
ATOM      7  C5  UNL     1      10.661  59.078  -0.394  0.00  0.00    +0.000 C 
ATOM      8  O1  UNL     1      10.700  60.090  -1.147  0.00  0.00    +0.000 OA
ATOM      9  N3  UNL     1      11.262  59.085   0.845  0.00  0.00    +0.000 N 
ATOM     10  C6  UNL     1      11.160  57.980   1.675  0.00  0.00    +0.000 C 
ATOM     11  O2  UNL     1      11.655  58.021   2.837  0.00  0.00    +0.000 OA
ATOM     12  N4  UNL     1      10.515  56.837   1.252  0.00  0.00    +0.000 N 
ATOM     13  C7  UNL     1      10.381  55.670   2.133  0.00  0.00    +0.000 C 
ATOM     14  C8  UNL     1      11.941  60.300   1.322  0.00  0.00    +0.000 C 
ENDROOT
TORSDOF 0
ENDMDL
MODEL 3
REMARK VINA RESULT:      -3.9      1.619      2.603
REMARK  Name = .\Caffeine.pdb
REMARK  3 active torsions:
REMARK  status: ('A' for Active; 'I' for Inactive)
REMARK    1  A    between atoms: C1_1  and  N1_2
REMARK    2  A    between atoms: N3_9  and  C8_14
REMARK    3  A    between atoms: N4_12  and  C7_13
REMARK                            x       y       z     vdW  Elec       q    Type
REMARK                         _______ _______ _______ _____ _____    ______ ____
ROOT
ATOM      1  C1  UNL     1      10.167  59.645  -2.156  0.00  0.00    +0.000 C 
ATOM      2  N1  UNL     1      10.288  59.160  -0.785  0.00  0.00    +0.000 N 
ATOM      3  C2  UNL     1      10.541  59.900   0.323  0.00  0.00    +0.000 C 
ATOM      4  N2  UNL     1      10.614  59.156   1.457  0.00  0.00    +0.000 NA
ATOM      5  C3  UNL     1      10.390  57.904   1.009  0.00  0.00    +0.000 C 
ATOM      6  C4  UNL     1      10.197  57.900  -0.330  0.00  0.00    +0.000 C 
ATOM      7  C5  UNL     1       9.974  56.708  -1.007  0.00  0.00    +0.000 C 
ATOM      8  O1  UNL     1       9.816  56.702  -2.258  0.00  0.00    +0.000 OA
ATOM      9  N3  UNL     1       9.943  55.541  -0.276  0.00  0.00    +0.000 N 
ATOM     10  C6  UNL     1      10.172  55.567   1.090  0.00  0.00    +0.000 C 
ATOM     11  O2  UNL     1      10.209  54.485   1.741  0.00  0.00    +0.000 OA
ATOM     12  N4  UNL     1      10.371  56.763   1.749  0.00  0.00    +0.000 N 
ATOM     13  C7  UNL     1      10.638  56.799   3.192  0.00  0.00    +0.000 C 
ATOM     14  C8  UNL     1       9.748  54.253  -0.962  0.00  0.00    +0.000 C 
ENDROOT
TORSDOF 0
ENDMDL
MODEL 4
REMARK VINA RESULT:      -3.8      1.656      3.168
REMARK  Name = .\Caffeine.pdb
REMARK  3 active torsions:
REMARK  status: ('A' for Active; 'I' for Inactive)
REMARK    1  A    between atoms: C1_1  and  N1_2
REMARK    2  A    between atoms: N3_9  and  C8_14
REMARK    3  A    between atoms: N4_12  and  C7_13
REMARK                            x       y       z     vdW  Elec       q    Type
REMARK                         _______ _______ _______ _____ _____    ______ ____
ROOT
ATOM      1  C1  UNL     1       9.865  60.207  -1.953  0.00  0.00    +0.000 C 
ATOM      2  N1  UNL     1       9.829  58.748  -1.977  0.00  0.00    +0.000 N 
ATOM      3  C2  UNL     1       9.612  57.954  -3.055  0.00  0.00    +0.000 C 
ATOM      4  N2  UNL     1       9.620  56.631  -2.753  0.00  0.00    +0.000 NA
ATOM      5  C3  UNL     1       9.855  56.626  -1.425  0.00  0.00    +0.000 C 
ATOM      6  C4  UNL     1       9.978  57.889  -0.955  0.00  0.00    +0.000 C 
ATOM      7  C5  UNL     1      10.199  58.120   0.396  0.00  0.00    +0.000 C 
ATOM      8  O1  UNL     1      10.292  59.298   0.838  0.00  0.00    +0.000 OA
ATOM      9  N3  UNL     1      10.301  57.032   1.234  0.00  0.00    +0.000 N 
ATOM     10  C6  UNL     1      10.141  55.750   0.735  0.00  0.00    +0.000 C 
ATOM     11  O2  UNL     1      10.169  54.762   1.522  0.00  0.00    +0.000 OA
ATOM     12  N4  UNL     1       9.944  55.538  -0.614  0.00  0.00    +0.000 N 
ATOM     13  C7  UNL     1       9.750  54.184  -1.150  0.00  0.00    +0.000 C 
ATOM     14  C8  UNL     1      10.496  57.237   2.679  0.00  0.00    +0.000 C 
ENDROOT
TORSDOF 0
ENDMDL
MODEL 5
REMARK VINA RESULT:      -3.8      1.771      4.791
REMARK  Name = .\Caffeine.pdb
REMARK  3 active torsions:
REMARK  status: ('A' for Active; 'I' for Inactive)
REMARK    1  A    between atoms: C1_1  and  N1_2
REMARK    2  A    between atoms: N3_9  and  C8_14
REMARK    3  A    between atoms: N4_12  and  C7_13
REMARK                            x       y       z     vdW  Elec       q    Type
REMARK                         _______ _______ _______ _____ _____    ______ ____
ROOT
ATOM      1  C1  UNL     1      11.508  57.444   2.216  0.00  0.00    +0.000 C 
ATOM      2  N1  UNL     1      10.703  56.831   1.163  0.00  0.00    +0.000 N 
ATOM      3  C2  UNL     1      10.249  55.554   1.122  0.00  0.00    +0.000 C 
ATOM      4  N2  UNL     1       9.540  55.276  -0.002  0.00  0.00    +0.000 NA
ATOM      5  C3  UNL     1       9.566  56.446  -0.672  0.00  0.00    +0.000 C 
ATOM      6  C4  UNL     1      10.263  57.379   0.019  0.00  0.00    +0.000 C 
ATOM      7  C5  UNL     1      10.438  58.654  -0.500  0.00  0.00    +0.000 C 
ATOM      8  O1  UNL     1      11.105  59.518   0.133  0.00  0.00    +0.000 OA
ATOM      9  N3  UNL     1       9.874  58.943  -1.723  0.00  0.00    +0.000 N 
ATOM     10  C6  UNL     1       9.192  57.962  -2.425  0.00  0.00    +0.000 C 
ATOM     11  O2  UNL     1       8.737  58.216  -3.576  0.00  0.00    +0.000 OA
ATOM     12  N4  UNL     1       9.009  56.706  -1.885  0.00  0.00    +0.000 N 
ATOM     13  C7  UNL     1       8.307  55.653  -2.630  0.00  0.00    +0.000 C 
ATOM     14  C8  UNL     1      10.071  60.272  -2.325  0.00  0.00    +0.000 C 
ENDROOT
TORSDOF 0
ENDMDL
MODEL 6
REMARK VINA RESULT:      -3.8      1.474      3.735
REMARK  Name = .\Caffeine.pdb
REMARK  3 active torsions:
REMARK  status: ('A' for Active; 'I' for Inactive)
REMARK    1  A    between atoms: C1_1  and  N1_2
REMARK    2  A    between atoms: N3_9  and  C8_14
REMARK    3  A    between atoms: N4_12  and  C7_13
REMARK                            x       y       z     vdW  Elec       q    Type
REMARK                         _______ _______ _______ _____ _____    ______ ____
ROOT
ATOM      1  C1  UNL     1      10.930  56.531   2.316  0.00  0.00    +0.000 C 
ATOM      2  N1  UNL     1      10.853  57.565   1.289  0.00  0.00    +0.000 N 
ATOM      3  C2  UNL     1      11.350  58.825   1.359  0.00  0.00    +0.000 C 
ATOM      4  N2  UNL     1      11.100  59.560   0.245  0.00  0.00    +0.000 NA
ATOM      5  C3  UNL     1      10.420  58.699  -0.538  0.00  0.00    +0.000 C 
ATOM      6  C4  UNL     1      10.266  57.506   0.082  0.00  0.00    +0.000 C 
ATOM      7  C5  UNL     1       9.569  56.476  -0.536  0.00  0.00    +0.000 C 
ATOM      8  O1  UNL     1       9.407  55.370   0.050  0.00  0.00    +0.000 OA
ATOM      9  N3  UNL     1       9.055  56.700  -1.794  0.00  0.00    +0.000 N 
ATOM     10  C6  UNL     1       9.200  57.940  -2.395  0.00  0.00    +0.000 C 
ATOM     11  O2  UNL     1       8.667  58.158  -3.519  0.00  0.00    +0.000 OA
ATOM     12  N4  UNL     1       9.914  58.945  -1.776  0.00  0.00    +0.000 N 
ATOM     13  C7  UNL     1      10.053  60.270  -2.394  0.00  0.00    +0.000 C 
ATOM     14  C8  UNL     1       8.277  55.646  -2.465  0.00  0.00    +0.000 C 
ENDROOT
TORSDOF 0
ENDMDL
MODEL 7
REMARK VINA RESULT:      -3.7      1.896      3.446
REMARK  Name = .\Caffeine.pdb
REMARK  3 active torsions:
REMARK  status: ('A' for Active; 'I' for Inactive)
REMARK    1  A    between atoms: C1_1  and  N1_2
REMARK    2  A    between atoms: N3_9  and  C8_14
REMARK    3  A    between atoms: N4_12  and  C7_13
REMARK                            x       y       z     vdW  Elec       q    Type
REMARK                         _______ _______ _______ _____ _____    ______ ____
ROOT
ATOM      1  C1  UNL     1       9.116  54.830  -3.082  0.00  0.00    +0.000 C 
ATOM      2  N1  UNL     1       9.507  55.235  -1.736  0.00  0.00    +0.000 N 
ATOM      3  C2  UNL     1       9.667  54.430  -0.656  0.00  0.00    +0.000 C 
ATOM      4  N2  UNL     1      10.019  55.108   0.467  0.00  0.00    +0.000 NA
ATOM      5  C3  UNL     1      10.078  56.386   0.041  0.00  0.00    +0.000 C 
ATOM      6  C4  UNL     1       9.770  56.468  -1.274  0.00  0.00    +0.000 C 
ATOM      7  C5  UNL     1       9.744  57.699  -1.916  0.00  0.00    +0.000 C 
ATOM      8  O1  UNL     1       9.436  57.779  -3.137  0.00  0.00    +0.000 OA
ATOM      9  N3  UNL     1      10.052  58.823  -1.182  0.00  0.00    +0.000 N 
ATOM     10  C6  UNL     1      10.334  58.717   0.170  0.00  0.00    +0.000 C 
ATOM     11  O2  UNL     1      10.548  59.759   0.851  0.00  0.00    +0.000 OA
ATOM     12  N4  UNL     1      10.377  57.483   0.787  0.00  0.00    +0.000 N 
ATOM     13  C7  UNL     1      10.652  57.362   2.224  0.00  0.00    +0.000 C 
ATOM     14  C8  UNL     1       9.997  60.150  -1.817  0.00  0.00    +0.000 C 
ENDROOT
TORSDOF 0
ENDMDL
MODEL 8
REMARK VINA RESULT:      -3.7      1.712      3.807
REMARK  Name = .\Caffeine.pdb
REMARK  3 active torsions:
REMARK  status: ('A' for Active; 'I' for Inactive)
REMARK    1  A    between atoms: C1_1  and  N1_2
REMARK    2  A    between atoms: N3_9  and  C8_14
REMARK    3  A    between atoms: N4_12  and  C7_13
REMARK                            x       y       z     vdW  Elec       q    Type
REMARK                         _______ _______ _______ _____ _____    ______ ____
ROOT
ATOM      1  C1  UNL     1      10.191  54.500   2.496  0.00  0.00    +0.000 C 
ATOM      2  N1  UNL     1      10.660  55.879   2.389  0.00  0.00    +0.000 N 
ATOM      3  C2  UNL     1      11.300  56.599   3.343  0.00  0.00    +0.000 C 
ATOM      4  N2  UNL     1      11.593  57.865   2.949  0.00  0.00    +0.000 NA
ATOM      5  C3  UNL     1      11.106  57.909   1.692  0.00  0.00    +0.000 C 
ATOM      6  C4  UNL     1      10.545  56.725   1.353  0.00  0.00    +0.000 C 
ATOM      7  C5  UNL     1       9.956  56.555   0.107  0.00  0.00    +0.000 C 
ATOM      8  O1  UNL     1       9.414  55.459  -0.201  0.00  0.00    +0.000 OA
ATOM      9  N3  UNL     1       9.973  57.616  -0.771  0.00  0.00    +0.000 N 
ATOM     10  C6  UNL     1      10.528  58.828  -0.390  0.00  0.00    +0.000 C 
ATOM     11  O2  UNL     1      10.478  59.815  -1.176  0.00  0.00    +0.000 OA
ATOM     12  N4  UNL     1      11.127  58.972   0.844  0.00  0.00    +0.000 N 
ATOM     13  C7  UNL     1      11.696  60.258   1.266  0.00  0.00    +0.000 C 
ATOM     14  C8  UNL     1       9.326  57.488  -2.087  0.00  0.00    +0.000 C 
ENDROOT
TORSDOF 0
ENDMDL
MODEL 9
REMARK VINA RESULT:      -3.6      1.803      3.915
REMARK  Name = .\Caffeine.pdb
REMARK  3 active torsions:
REMARK  status: ('A' for Active; 'I' for Inactive)
REMARK    1  A    between atoms: C1_1  and  N1_2
REMARK    2  A    between atoms: N3_9  and  C8_14
REMARK    3  A    between atoms: N4_12  and  C7_13
REMARK                            x       y       z     vdW  Elec       q    Type
REMARK                         _______ _______ _______ _____ _____    ______ ____
ROOT
ATOM      1  C1  UNL     1      10.286  54.584   1.182  0.00  0.00    +0.000 C 
ATOM      2  N1  UNL     1       9.886  55.375   0.023  0.00  0.00    +0.000 N 
ATOM      3  C2  UNL     1       9.241  54.932  -1.084  0.00  0.00    +0.000 C 
ATOM      4  N2  UNL     1       9.022  55.909  -2.002  0.00  0.00    +0.000 NA
ATOM      5  C3  UNL     1       9.561  56.997  -1.416  0.00  0.00    +0.000 C 
ATOM      6  C4  UNL     1      10.081  56.684  -0.207  0.00  0.00    +0.000 C 
ATOM      7  C5  UNL     1      10.711  57.654   0.562  0.00  0.00    +0.000 C 
ATOM      8  O1  UNL     1      11.215  57.357   1.680  0.00  0.00    +0.000 OA
ATOM      9  N3  UNL     1      10.777  58.936   0.065  0.00  0.00    +0.000 N 
ATOM     10  C6  UNL     1      10.264  59.226  -1.188  0.00  0.00    +0.000 C 
ATOM     11  O2  UNL     1      10.390  60.390  -1.665  0.00  0.00    +0.000 OA
ATOM     12  N4  UNL     1       9.623  58.255  -1.930  0.00  0.00    +0.000 N 
ATOM     13  C7  UNL     1       9.096  58.546  -3.269  0.00  0.00    +0.000 C 
ATOM     14  C8  UNL     1      11.471  59.984   0.833  0.00  0.00    +0.000 C 
ENDROOT
TORSDOF 0
ENDMDL
