MODEL 1
REMARK VINA RESULT:      22.2      0.000      0.000
REMARK  Name = .\Caffeine.pdb
REMARK  3 active torsions:
REMARK  status: ('A' for Active; 'I' for Inactive)
REMARK    1  A    between atoms: C1_1  and  N1_2
REMARK    2  A    between atoms: N3_9  and  C8_14
REMARK    3  A    between atoms: N4_12  and  C7_13
REMARK                            x       y       z     vdW  Elec       q    Type
REMARK                         _______ _______ _______ _____ _____    ______ ____
ROOT
ATOM      1  C1  UNL     1     -10.438  78.609 119.923  0.00  0.00    +0.000 C 
ATOM      2  N1  UNL     1     -11.259  77.895 120.896  0.00  0.00    +0.000 N 
ATOM      3  C2  UNL     1     -12.610  77.921 120.999  0.00  0.00    +0.000 C 
ATOM      4  N2  UNL     1     -13.082  77.164 122.023  0.00  0.00    +0.000 NA
ATOM      5  C3  UNL     1     -11.957  76.653 122.563  0.00  0.00    +0.000 C 
ATOM      6  C4  UNL     1     -10.864  77.089 121.896  0.00  0.00    +0.000 C 
ATOM      7  C5  UNL     1      -9.592  76.706 122.300  0.00  0.00    +0.000 C 
ATOM      8  O1  UNL     1      -8.571  77.129 121.691  0.00  0.00    +0.000 OA
ATOM      9  N3  UNL     1      -9.480  75.864 123.385  0.00  0.00    +0.000 N 
ATOM     10  C6  UNL     1     -10.613  75.456 124.070  0.00  0.00    +0.000 C 
ATOM     11  O2  UNL     1     -10.496  74.739 125.104  0.00  0.00    +0.000 OA
ATOM     12  N4  UNL     1     -11.870  75.829 123.641  0.00  0.00    +0.000 N 
ATOM     13  C7  UNL     1     -13.075  75.420 124.374  0.00  0.00    +0.000 C 
ATOM     14  C8  UNL     1      -8.147  75.467 123.868  0.00  0.00    +0.000 C 
ENDROOT
TORSDOF 0
ENDMDL
MODEL 2
REMARK VINA RESULT:      22.4      1.746      4.709
REMARK  Name = .\Caffeine.pdb
REMARK  3 active torsions:
REMARK  status: ('A' for Active; 'I' for Inactive)
REMARK    1  A    between atoms: C1_1  and  N1_2
REMARK    2  A    between atoms: N3_9  and  C8_14
REMARK    3  A    between atoms: N4_12  and  C7_13
REMARK                            x       y       z     vdW  Elec       q    Type
REMARK                         _______ _______ _______ _____ _____    ______ ____
ROOT
ATOM      1  C1  UNL     1     -11.601  74.795 125.096  0.00  0.00    +0.000 C 
ATOM      2  N1  UNL     1     -10.635  75.270 124.110  0.00  0.00    +0.000 N 
ATOM      3  C2  UNL     1      -9.313  74.976 124.055  0.00  0.00    +0.000 C 
ATOM      4  N2  UNL     1      -8.672  75.589 123.027  0.00  0.00    +0.000 NA
ATOM      5  C3  UNL     1      -9.660  76.287 122.430  0.00  0.00    +0.000 C 
ATOM      6  C4  UNL     1     -10.835  76.103 123.075  0.00  0.00    +0.000 C 
ATOM      7  C5  UNL     1     -11.984  76.751 122.644  0.00  0.00    +0.000 C 
ATOM      8  O1  UNL     1     -13.076  76.596 123.257  0.00  0.00    +0.000 OA
ATOM      9  N3  UNL     1     -11.894  77.570 121.540  0.00  0.00    +0.000 N 
ATOM     10  C6  UNL     1     -10.674  77.766 120.915  0.00  0.00    +0.000 C 
ATOM     11  O2  UNL     1     -10.588  78.572 119.945  0.00  0.00    +0.000 OA
ATOM     12  N4  UNL     1      -9.546  77.097 121.344  0.00  0.00    +0.000 N 
ATOM     13  C7  UNL     1      -8.243  77.316 120.703  0.00  0.00    +0.000 C 
ATOM     14  C8  UNL     1     -13.082  78.305 121.075  0.00  0.00    +0.000 C 
ENDROOT
TORSDOF 0
ENDMDL
MODEL 3
REMARK VINA RESULT:      25.1      1.451      2.996
REMARK  Name = .\Caffeine.pdb
REMARK  3 active torsions:
REMARK  status: ('A' for Active; 'I' for Inactive)
REMARK    1  A    between atoms: C1_1  and  N1_2
REMARK    2  A    between atoms: N3_9  and  C8_14
REMARK    3  A    between atoms: N4_12  and  C7_13
REMARK                            x       y       z     vdW  Elec       q    Type
REMARK                         _______ _______ _______ _____ _____    ______ ____
ROOT
ATOM      1  C1  UNL     1     -13.082  78.337 121.022  0.00  0.00    +0.000 C 
ATOM      2  N1  UNL     1     -11.685  78.013 121.293  0.00  0.00    +0.000 N 
ATOM      3  C2  UNL     1     -10.595  78.506 120.656  0.00  0.00    +0.000 C 
ATOM      4  N2  UNL     1      -9.427  77.997 121.125  0.00  0.00    +0.000 NA
ATOM      5  C3  UNL     1      -9.834  77.155 122.096  0.00  0.00    +0.000 C 
ATOM      6  C4  UNL     1     -11.183  77.158 122.199  0.00  0.00    +0.000 C 
ATOM      7  C5  UNL     1     -11.821  76.340 123.122  0.00  0.00    +0.000 C 
ATOM      8  O1  UNL     1     -13.080  76.327 123.204  0.00  0.00    +0.000 OA
ATOM      9  N3  UNL     1     -11.044  75.542 123.932  0.00  0.00    +0.000 N 
ATOM     10  C6  UNL     1      -9.666  75.534 123.787  0.00  0.00    +0.000 C 
ATOM     11  O2  UNL     1      -8.966  74.749 124.487  0.00  0.00    +0.000 OA
ATOM     12  N4  UNL     1      -9.047  76.369 122.879  0.00  0.00    +0.000 N 
ATOM     13  C7  UNL     1      -7.590  76.351 122.702  0.00  0.00    +0.000 C 
ATOM     14  C8  UNL     1     -11.684  74.633 124.897  0.00  0.00    +0.000 C 
ENDROOT
TORSDOF 0
ENDMDL
