MODEL 1
REMARK VINA RESULT:      -4.7      0.000      0.000
REMARK  Name = .\Caffeine.pdb
REMARK  3 active torsions:
REMARK  status: ('A' for Active; 'I' for Inactive)
REMARK    1  A    between atoms: C1_1  and  N1_2
REMARK    2  A    between atoms: N3_9  and  C8_14
REMARK    3  A    between atoms: N4_12  and  C7_13
REMARK                            x       y       z     vdW  Elec       q    Type
REMARK                         _______ _______ _______ _____ _____    ______ ____
ROOT
ATOM      1  C1  UNL     1      -9.726  34.553  22.738  0.00  0.00    +0.000 C 
ATOM      2  N1  UNL     1      -9.912  35.246  21.466  0.00  0.00    +0.000 N 
ATOM      3  C2  UNL     1     -11.049  35.308  20.729  0.00  0.00    +0.000 C 
ATOM      4  N2  UNL     1     -10.901  36.015  19.579  0.00  0.00    +0.000 NA
ATOM      5  C3  UNL     1      -9.610  36.401  19.627  0.00  0.00    +0.000 C 
ATOM      6  C4  UNL     1      -9.013  35.941  20.751  0.00  0.00    +0.000 C 
ATOM      7  C5  UNL     1      -7.671  36.201  20.992  0.00  0.00    +0.000 C 
ATOM      8  O1  UNL     1      -7.108  35.755  22.030  0.00  0.00    +0.000 OA
ATOM      9  N3  UNL     1      -6.975  36.945  20.066  0.00  0.00    +0.000 N 
ATOM     10  C6  UNL     1      -7.600  37.379  18.908  0.00  0.00    +0.000 C 
ATOM     11  O2  UNL     1      -6.937  38.003  18.032  0.00  0.00    +0.000 OA
ATOM     12  N4  UNL     1      -8.941  37.130  18.695  0.00  0.00    +0.000 N 
ATOM     13  C7  UNL     1      -9.607  37.565  17.461  0.00  0.00    +0.000 C 
ATOM     14  C8  UNL     1      -5.540  37.209  20.266  0.00  0.00    +0.000 C 
ENDROOT
TORSDOF 0
ENDMDL
MODEL 2
REMARK VINA RESULT:      -4.7      1.616      3.100
REMARK  Name = .\Caffeine.pdb
REMARK  3 active torsions:
REMARK  status: ('A' for Active; 'I' for Inactive)
REMARK    1  A    between atoms: C1_1  and  N1_2
REMARK    2  A    between atoms: N3_9  and  C8_14
REMARK    3  A    between atoms: N4_12  and  C7_13
REMARK                            x       y       z     vdW  Elec       q    Type
REMARK                         _______ _______ _______ _____ _____    ______ ____
ROOT
ATOM      1  C1  UNL     1     -10.834  35.731  22.917  0.00  0.00    +0.000 C 
ATOM      2  N1  UNL     1      -9.457  36.002  22.515  0.00  0.00    +0.000 N 
ATOM      3  C2  UNL     1      -8.348  35.910  23.290  0.00  0.00    +0.000 C 
ATOM      4  N2  UNL     1      -7.208  36.246  22.633  0.00  0.00    +0.000 NA
ATOM      5  C3  UNL     1      -7.653  36.555  21.398  0.00  0.00    +0.000 C 
ATOM      6  C4  UNL     1      -8.997  36.414  21.323  0.00  0.00    +0.000 C 
ATOM      7  C5  UNL     1      -9.671  36.705  20.144  0.00  0.00    +0.000 C 
ATOM      8  O1  UNL     1     -10.926  36.594  20.080  0.00  0.00    +0.000 OA
ATOM      9  N3  UNL     1      -8.933  37.126  19.060  0.00  0.00    +0.000 N 
ATOM     10  C6  UNL     1      -7.563  37.291  19.170  0.00  0.00    +0.000 C 
ATOM     11  O2  UNL     1      -6.904  37.742  18.191  0.00  0.00    +0.000 OA
ATOM     12  N4  UNL     1      -6.906  36.977  20.343  0.00  0.00    +0.000 N 
ATOM     13  C7  UNL     1      -5.457  37.171  20.477  0.00  0.00    +0.000 C 
ATOM     14  C8  UNL     1      -9.616  37.481  17.804  0.00  0.00    +0.000 C 
ENDROOT
TORSDOF 0
ENDMDL
MODEL 3
REMARK VINA RESULT:      -4.6      1.730      4.281
REMARK  Name = .\Caffeine.pdb
REMARK  3 active torsions:
REMARK  status: ('A' for Active; 'I' for Inactive)
REMARK    1  A    between atoms: C1_1  and  N1_2
REMARK    2  A    between atoms: N3_9  and  C8_14
REMARK    3  A    between atoms: N4_12  and  C7_13
REMARK                            x       y       z     vdW  Elec       q    Type
REMARK                         _______ _______ _______ _____ _____    ______ ____
ROOT
ATOM      1  C1  UNL     1     -10.105  37.461  17.420  0.00  0.00    +0.000 C 
ATOM      2  N1  UNL     1      -8.941  37.404  18.300  0.00  0.00    +0.000 N 
ATOM      3  C2  UNL     1      -7.737  37.994  18.099  0.00  0.00    +0.000 C 
ATOM      4  N2  UNL     1      -6.847  37.740  19.092  0.00  0.00    +0.000 NA
ATOM      5  C3  UNL     1      -7.551  36.959  19.936  0.00  0.00    +0.000 C 
ATOM      6  C4  UNL     1      -8.803  36.752  19.466  0.00  0.00    +0.000 C 
ATOM      7  C5  UNL     1      -9.695  35.952  20.166  0.00  0.00    +0.000 C 
ATOM      8  O1  UNL     1     -10.856  35.742  19.718  0.00  0.00    +0.000 OA
ATOM      9  N3  UNL     1      -9.274  35.390  21.351  0.00  0.00    +0.000 N 
ATOM     10  C6  UNL     1      -7.978  35.592  21.796  0.00  0.00    +0.000 C 
ATOM     11  O2  UNL     1      -7.579  35.018  22.849  0.00  0.00    +0.000 OA
ATOM     12  N4  UNL     1      -7.111  36.408  21.098  0.00  0.00    +0.000 N 
ATOM     13  C7  UNL     1      -5.728  36.609  21.549  0.00  0.00    +0.000 C 
ATOM     14  C8  UNL     1     -10.178  34.504  22.103  0.00  0.00    +0.000 C 
ENDROOT
TORSDOF 0
ENDMDL
MODEL 4
REMARK VINA RESULT:      -4.6      0.912      3.407
REMARK  Name = .\Caffeine.pdb
REMARK  3 active torsions:
REMARK  status: ('A' for Active; 'I' for Inactive)
REMARK    1  A    between atoms: C1_1  and  N1_2
REMARK    2  A    between atoms: N3_9  and  C8_14
REMARK    3  A    between atoms: N4_12  and  C7_13
REMARK                            x       y       z     vdW  Elec       q    Type
REMARK                         _______ _______ _______ _____ _____    ______ ____
ROOT
ATOM      1  C1  UNL     1      -9.767  37.988  17.048  0.00  0.00    +0.000 C 
ATOM      2  N1  UNL     1      -9.942  37.386  18.366  0.00  0.00    +0.000 N 
ATOM      3  C2  UNL     1     -11.109  37.003  18.939  0.00  0.00    +0.000 C 
ATOM      4  N2  UNL     1     -10.948  36.490  20.186  0.00  0.00    +0.000 NA
ATOM      5  C3  UNL     1      -9.615  36.566  20.372  0.00  0.00    +0.000 C 
ATOM      6  C4  UNL     1      -9.008  37.103  19.289  0.00  0.00    +0.000 C 
ATOM      7  C5  UNL     1      -7.634  37.298  19.274  0.00  0.00    +0.000 C 
ATOM      8  O1  UNL     1      -7.071  37.818  18.273  0.00  0.00    +0.000 OA
ATOM      9  N3  UNL     1      -6.911  36.918  20.384  0.00  0.00    +0.000 N 
ATOM     10  C6  UNL     1      -7.558  36.398  21.493  0.00  0.00    +0.000 C 
ATOM     11  O2  UNL     1      -6.895  36.116  22.531  0.00  0.00    +0.000 OA
ATOM     12  N4  UNL     1      -8.922  36.192  21.481  0.00  0.00    +0.000 N 
ATOM     13  C7  UNL     1      -9.620  35.663  22.660  0.00  0.00    +0.000 C 
ATOM     14  C8  UNL     1      -5.457  37.144  20.422  0.00  0.00    +0.000 C 
ENDROOT
TORSDOF 0
ENDMDL
MODEL 5
REMARK VINA RESULT:      -4.5      1.622      3.717
REMARK  Name = .\Caffeine.pdb
REMARK  3 active torsions:
REMARK  status: ('A' for Active; 'I' for Inactive)
REMARK    1  A    between atoms: C1_1  and  N1_2
REMARK    2  A    between atoms: N3_9  and  C8_14
REMARK    3  A    between atoms: N4_12  and  C7_13
REMARK                            x       y       z     vdW  Elec       q    Type
REMARK                         _______ _______ _______ _____ _____    ______ ____
ROOT
ATOM      1  C1  UNL     1      -5.461  37.196  20.388  0.00  0.00    +0.000 C 
ATOM      2  N1  UNL     1      -6.828  36.780  20.688  0.00  0.00    +0.000 N 
ATOM      3  C2  UNL     1      -7.248  36.076  21.768  0.00  0.00    +0.000 C 
ATOM      4  N2  UNL     1      -8.582  35.824  21.755  0.00  0.00    +0.000 NA
ATOM      5  C3  UNL     1      -8.987  36.409  20.609  0.00  0.00    +0.000 C 
ATOM      6  C4  UNL     1      -7.942  36.979  19.966  0.00  0.00    +0.000 C 
ATOM      7  C5  UNL     1      -8.129  37.617  18.747  0.00  0.00    +0.000 C 
ATOM      8  O1  UNL     1      -7.151  38.130  18.136  0.00  0.00    +0.000 OA
ATOM      9  N3  UNL     1      -9.402  37.663  18.224  0.00  0.00    +0.000 N 
ATOM     10  C6  UNL     1     -10.450  37.045  18.887  0.00  0.00    +0.000 C 
ATOM     11  O2  UNL     1     -11.602  37.034  18.367  0.00  0.00    +0.000 OA
ATOM     12  N4  UNL     1     -10.251  36.434  20.108  0.00  0.00    +0.000 N 
ATOM     13  C7  UNL     1     -11.351  35.757  20.807  0.00  0.00    +0.000 C 
ATOM     14  C8  UNL     1      -9.634  38.296  16.915  0.00  0.00    +0.000 C 
ENDROOT
TORSDOF 0
ENDMDL
MODEL 6
REMARK VINA RESULT:      -4.1      1.640      3.706
REMARK  Name = .\Caffeine.pdb
REMARK  3 active torsions:
REMARK  status: ('A' for Active; 'I' for Inactive)
REMARK    1  A    between atoms: C1_1  and  N1_2
REMARK    2  A    between atoms: N3_9  and  C8_14
REMARK    3  A    between atoms: N4_12  and  C7_13
REMARK                            x       y       z     vdW  Elec       q    Type
REMARK                         _______ _______ _______ _____ _____    ______ ____
ROOT
ATOM      1  C1  UNL     1      -5.479  37.229  20.160  0.00  0.00    +0.000 C 
ATOM      2  N1  UNL     1      -6.878  37.099  19.765  0.00  0.00    +0.000 N 
ATOM      3  C2  UNL     1      -7.432  37.477  18.587  0.00  0.00    +0.000 C 
ATOM      4  N2  UNL     1      -8.768  37.242  18.525  0.00  0.00    +0.000 NA
ATOM      5  C3  UNL     1      -9.032  36.691  19.728  0.00  0.00    +0.000 C 
ATOM      6  C4  UNL     1      -7.907  36.606  20.474  0.00  0.00    +0.000 C 
ATOM      7  C5  UNL     1      -7.953  36.091  21.763  0.00  0.00    +0.000 C 
ATOM      8  O1  UNL     1      -6.908  36.031  22.467  0.00  0.00    +0.000 OA
ATOM      9  N3  UNL     1      -9.168  35.661  22.248  0.00  0.00    +0.000 N 
ATOM     10  C6  UNL     1     -10.311  35.786  21.476  0.00  0.00    +0.000 C 
ATOM     11  O2  UNL     1     -11.432  35.452  21.955  0.00  0.00    +0.000 OA
ATOM     12  N4  UNL     1     -10.243  36.280  20.190  0.00  0.00    +0.000 N 
ATOM     13  C7  UNL     1     -11.453  36.439  19.372  0.00  0.00    +0.000 C 
ATOM     14  C8  UNL     1      -9.265  35.145  23.624  0.00  0.00    +0.000 C 
ENDROOT
TORSDOF 0
ENDMDL
MODEL 7
REMARK VINA RESULT:      -4.1      1.898      4.926
REMARK  Name = .\Caffeine.pdb
REMARK  3 active torsions:
REMARK  status: ('A' for Active; 'I' for Inactive)
REMARK    1  A    between atoms: C1_1  and  N1_2
REMARK    2  A    between atoms: N3_9  and  C8_14
REMARK    3  A    between atoms: N4_12  and  C7_13
REMARK                            x       y       z     vdW  Elec       q    Type
REMARK                         _______ _______ _______ _____ _____    ______ ____
ROOT
ATOM      1  C1  UNL     1      -7.333  37.357  18.729  0.00  0.00    +0.000 C 
ATOM      2  N1  UNL     1      -7.319  36.799  20.078  0.00  0.00    +0.000 N 
ATOM      3  C2  UNL     1      -6.283  36.804  20.952  0.00  0.00    +0.000 C 
ATOM      4  N2  UNL     1      -6.573  36.187  22.127  0.00  0.00    +0.000 NA
ATOM      5  C3  UNL     1      -7.851  35.793  21.952  0.00  0.00    +0.000 C 
ATOM      6  C4  UNL     1      -8.301  36.153  20.728  0.00  0.00    +0.000 C 
ATOM      7  C5  UNL     1      -9.588  35.823  20.326  0.00  0.00    +0.000 C 
ATOM      8  O1  UNL     1     -10.001  36.140  19.177  0.00  0.00    +0.000 OA
ATOM      9  N3  UNL     1     -10.390  35.135  21.209  0.00  0.00    +0.000 N 
ATOM     10  C6  UNL     1      -9.896  34.751  22.445  0.00  0.00    +0.000 C 
ATOM     11  O2  UNL     1     -10.616  34.062  23.222  0.00  0.00    +0.000 OA
ATOM     12  N4  UNL     1      -8.622  35.106  22.837  0.00  0.00    +0.000 N 
ATOM     13  C7  UNL     1      -8.081  34.684  24.135  0.00  0.00    +0.000 C 
ATOM     14  C8  UNL     1     -11.748  34.733  20.805  0.00  0.00    +0.000 C 
ENDROOT
TORSDOF 0
ENDMDL
MODEL 8
REMARK VINA RESULT:      -3.9      2.390      4.598
REMARK  Name = .\Caffeine.pdb
REMARK  3 active torsions:
REMARK  status: ('A' for Active; 'I' for Inactive)
REMARK    1  A    between atoms: C1_1  and  N1_2
REMARK    2  A    between atoms: N3_9  and  C8_14
REMARK    3  A    between atoms: N4_12  and  C7_13
REMARK                            x       y       z     vdW  Elec       q    Type
REMARK                         _______ _______ _______ _____ _____    ______ ____
ROOT
ATOM      1  C1  UNL     1     -12.078  39.989  17.687  0.00  0.00    +0.000 C 
ATOM      2  N1  UNL     1     -10.726  39.506  17.946  0.00  0.00    +0.000 N 
ATOM      3  C2  UNL     1      -9.565  40.058  17.512  0.00  0.00    +0.000 C 
ATOM      4  N2  UNL     1      -8.466  39.365  17.905  0.00  0.00    +0.000 NA
ATOM      5  C3  UNL     1      -8.990  38.344  18.614  0.00  0.00    +0.000 C 
ATOM      6  C4  UNL     1     -10.341  38.422  18.639  0.00  0.00    +0.000 C 
ATOM      7  C5  UNL     1     -11.090  37.454  19.295  0.00  0.00    +0.000 C 
ATOM      8  O1  UNL     1     -12.350  37.515  19.301  0.00  0.00    +0.000 OA
ATOM      9  N3  UNL     1     -10.420  36.429  19.924  0.00  0.00    +0.000 N 
ATOM     10  C6  UNL     1      -9.039  36.354  19.858  0.00  0.00    +0.000 C 
ATOM     11  O2  UNL     1      -8.437  35.373  20.381  0.00  0.00    +0.000 OA
ATOM     12  N4  UNL     1      -8.309  37.336  19.221  0.00  0.00    +0.000 N 
ATOM     13  C7  UNL     1      -6.846  37.254  19.125  0.00  0.00    +0.000 C 
ATOM     14  C8  UNL     1     -11.181  35.362  20.597  0.00  0.00    +0.000 C 
ENDROOT
TORSDOF 0
ENDMDL
MODEL 9
REMARK VINA RESULT:      -3.9      1.769      4.025
REMARK  Name = .\Caffeine.pdb
REMARK  3 active torsions:
REMARK  status: ('A' for Active; 'I' for Inactive)
REMARK    1  A    between atoms: C1_1  and  N1_2
REMARK    2  A    between atoms: N3_9  and  C8_14
REMARK    3  A    between atoms: N4_12  and  C7_13
REMARK                            x       y       z     vdW  Elec       q    Type
REMARK                         _______ _______ _______ _____ _____    ______ ____
ROOT
ATOM      1  C1  UNL     1      -7.363  37.434  19.004  0.00  0.00    +0.000 C 
ATOM      2  N1  UNL     1      -8.658  37.321  19.667  0.00  0.00    +0.000 N 
ATOM      3  C2  UNL     1      -9.818  37.917  19.297  0.00  0.00    +0.000 C 
ATOM      4  N2  UNL     1     -10.853  37.632  20.129  0.00  0.00    +0.000 NA
ATOM      5  C3  UNL     1     -10.288  36.820  21.045  0.00  0.00    +0.000 C 
ATOM      6  C4  UNL     1      -8.976  36.632  20.775  0.00  0.00    +0.000 C 
ATOM      7  C5  UNL     1      -8.190  35.847  21.609  0.00  0.00    +0.000 C 
ATOM      8  O1  UNL     1      -6.962  35.689  21.370  0.00  0.00    +0.000 OA
ATOM      9  N3  UNL     1      -8.787  35.260  22.702  0.00  0.00    +0.000 N 
ATOM     10  C6  UNL     1     -10.126  35.491  22.974  0.00  0.00    +0.000 C 
ATOM     11  O2  UNL     1     -10.648  35.003  24.016  0.00  0.00    +0.000 OA
ATOM     12  N4  UNL     1     -10.896  36.256  22.123  0.00  0.00    +0.000 N 
ATOM     13  C7  UNL     1     -12.310  36.527  22.415  0.00  0.00    +0.000 C 
ATOM     14  C8  UNL     1      -7.980  34.452  23.631  0.00  0.00    +0.000 C 
ENDROOT
TORSDOF 0
ENDMDL
