MODEL 1
REMARK VINA RESULT:      -3.3      0.000      0.000
REMARK  Name = .\Caffeine.pdb
REMARK  3 active torsions:
REMARK  status: ('A' for Active; 'I' for Inactive)
REMARK    1  A    between atoms: C1_1  and  N1_2
REMARK    2  A    between atoms: N3_9  and  C8_14
REMARK    3  A    between atoms: N4_12  and  C7_13
REMARK                            x       y       z     vdW  Elec       q    Type
REMARK                         _______ _______ _______ _____ _____    ______ ____
ROOT
ATOM      1  C1  UNL     1     -16.823  57.351   6.090  0.00  0.00    +0.000 C 
ATOM      2  N1  UNL     1     -17.260  58.495   5.297  0.00  0.00    +0.000 N 
ATOM      3  C2  UNL     1     -18.038  58.470   4.187  0.00  0.00    +0.000 C 
ATOM      4  N2  UNL     1     -18.256  59.702   3.659  0.00  0.00    +0.000 NA
ATOM      5  C3  UNL     1     -17.576  60.512   4.495  0.00  0.00    +0.000 C 
ATOM      6  C4  UNL     1     -16.976  59.796   5.474  0.00  0.00    +0.000 C 
ATOM      7  C5  UNL     1     -16.198  60.429   6.435  0.00  0.00    +0.000 C 
ATOM      8  O1  UNL     1     -15.621  59.760   7.335  0.00  0.00    +0.000 OA
ATOM      9  N3  UNL     1     -16.069  61.799   6.368  0.00  0.00    +0.000 N 
ATOM     10  C6  UNL     1     -16.668  62.506   5.338  0.00  0.00    +0.000 C 
ATOM     11  O2  UNL     1     -16.488  63.753   5.246  0.00  0.00    +0.000 OA
ATOM     12  N4  UNL     1     -17.455  61.863   4.405  0.00  0.00    +0.000 N 
ATOM     13  C7  UNL     1     -18.075  62.601   3.297  0.00  0.00    +0.000 C 
ATOM     14  C8  UNL     1     -15.221  62.503   7.344  0.00  0.00    +0.000 C 
ENDROOT
TORSDOF 0
ENDMDL
MODEL 2
REMARK VINA RESULT:      -3.1      1.512      3.019
REMARK  Name = .\Caffeine.pdb
REMARK  3 active torsions:
REMARK  status: ('A' for Active; 'I' for Inactive)
REMARK    1  A    between atoms: C1_1  and  N1_2
REMARK    2  A    between atoms: N3_9  and  C8_14
REMARK    3  A    between atoms: N4_12  and  C7_13
REMARK                            x       y       z     vdW  Elec       q    Type
REMARK                         _______ _______ _______ _____ _____    ______ ____
ROOT
ATOM      1  C1  UNL     1     -17.597  57.670   5.321  0.00  0.00    +0.000 C 
ATOM      2  N1  UNL     1     -16.874  58.784   5.927  0.00  0.00    +0.000 N 
ATOM      3  C2  UNL     1     -16.057  58.734   7.008  0.00  0.00    +0.000 C 
ATOM      4  N2  UNL     1     -15.543  59.945   7.344  0.00  0.00    +0.000 NA
ATOM      5  C3  UNL     1     -16.075  60.766   6.417  0.00  0.00    +0.000 C 
ATOM      6  C4  UNL     1     -16.874  60.078   5.569  0.00  0.00    +0.000 C 
ATOM      7  C5  UNL     1     -17.548  60.734   4.547  0.00  0.00    +0.000 C 
ATOM      8  O1  UNL     1     -18.310  60.097   3.770  0.00  0.00    +0.000 OA
ATOM      9  N3  UNL     1     -17.369  62.093   4.417  0.00  0.00    +0.000 N 
ATOM     10  C6  UNL     1     -16.569  62.780   5.316  0.00  0.00    +0.000 C 
ATOM     11  O2  UNL     1     -16.465  64.036   5.231  0.00  0.00    +0.000 OA
ATOM     12  N4  UNL     1     -15.890  62.109   6.313  0.00  0.00    +0.000 N 
ATOM     13  C7  UNL     1     -15.059  62.831   7.285  0.00  0.00    +0.000 C 
ATOM     14  C8  UNL     1     -18.096  62.831   3.371  0.00  0.00    +0.000 C 
ENDROOT
TORSDOF 0
ENDMDL
MODEL 3
REMARK VINA RESULT:      -3.0      2.363      5.275
REMARK  Name = .\Caffeine.pdb
REMARK  3 active torsions:
REMARK  status: ('A' for Active; 'I' for Inactive)
REMARK    1  A    between atoms: C1_1  and  N1_2
REMARK    2  A    between atoms: N3_9  and  C8_14
REMARK    3  A    between atoms: N4_12  and  C7_13
REMARK                            x       y       z     vdW  Elec       q    Type
REMARK                         _______ _______ _______ _____ _____    ______ ____
ROOT
ATOM      1  C1  UNL     1     -17.464  65.462   1.799  0.00  0.00    +0.000 C 
ATOM      2  N1  UNL     1     -16.999  65.149   3.146  0.00  0.00    +0.000 N 
ATOM      3  C2  UNL     1     -16.398  65.995   4.019  0.00  0.00    +0.000 C 
ATOM      4  N2  UNL     1     -16.063  65.400   5.193  0.00  0.00    +0.000 NA
ATOM      5  C3  UNL     1     -16.485  64.131   5.019  0.00  0.00    +0.000 C 
ATOM      6  C4  UNL     1     -17.042  63.974   3.796  0.00  0.00    +0.000 C 
ATOM      7  C5  UNL     1     -17.523  62.735   3.395  0.00  0.00    +0.000 C 
ATOM      8  O1  UNL     1     -18.023  62.584   2.247  0.00  0.00    +0.000 OA
ATOM      9  N3  UNL     1     -17.427  61.683   4.278  0.00  0.00    +0.000 N 
ATOM     10  C6  UNL     1     -16.825  61.861   5.512  0.00  0.00    +0.000 C 
ATOM     11  O2  UNL     1     -16.681  60.875   6.289  0.00  0.00    +0.000 OA
ATOM     12  N4  UNL     1     -16.372  63.104   5.903  0.00  0.00    +0.000 N 
ATOM     13  C7  UNL     1     -15.712  63.299   7.201  0.00  0.00    +0.000 C 
ATOM     14  C8  UNL     1     -17.890  60.344   3.874  0.00  0.00    +0.000 C 
ENDROOT
TORSDOF 0
ENDMDL
MODEL 4
REMARK VINA RESULT:      -3.0      1.766      4.757
REMARK  Name = .\Caffeine.pdb
REMARK  3 active torsions:
REMARK  status: ('A' for Active; 'I' for Inactive)
REMARK    1  A    between atoms: C1_1  and  N1_2
REMARK    2  A    between atoms: N3_9  and  C8_14
REMARK    3  A    between atoms: N4_12  and  C7_13
REMARK                            x       y       z     vdW  Elec       q    Type
REMARK                         _______ _______ _______ _____ _____    ______ ____
ROOT
ATOM      1  C1  UNL     1     -16.880  63.430   5.024  0.00  0.00    +0.000 C 
ATOM      2  N1  UNL     1     -16.504  62.220   5.748  0.00  0.00    +0.000 N 
ATOM      3  C2  UNL     1     -15.748  62.142   6.871  0.00  0.00    +0.000 C 
ATOM      4  N2  UNL     1     -15.557  60.868   7.298  0.00  0.00    +0.000 NA
ATOM      5  C3  UNL     1     -16.236  60.140   6.388  0.00  0.00    +0.000 C 
ATOM      6  C4  UNL     1     -16.801  60.943   5.458  0.00  0.00    +0.000 C 
ATOM      7  C5  UNL     1     -17.529  60.399   4.407  0.00  0.00    +0.000 C 
ATOM      8  O1  UNL     1     -18.039  61.146   3.527  0.00  0.00    +0.000 OA
ATOM      9  N3  UNL     1     -17.666  59.030   4.350  0.00  0.00    +0.000 N 
ATOM     10  C6  UNL     1     -17.052  58.228   5.298  0.00  0.00    +0.000 C 
ATOM     11  O2  UNL     1     -17.127  56.970   5.199  0.00  0.00    +0.000 OA
ATOM     12  N4  UNL     1     -16.351  58.786   6.347  0.00  0.00    +0.000 N 
ATOM     13  C7  UNL     1     -15.677  57.943   7.344  0.00  0.00    +0.000 C 
ATOM     14  C8  UNL     1     -18.397  58.413   3.231  0.00  0.00    +0.000 C 
ENDROOT
TORSDOF 0
ENDMDL
MODEL 5
REMARK VINA RESULT:      -2.9      1.876      4.410
REMARK  Name = .\Caffeine.pdb
REMARK  3 active torsions:
REMARK  status: ('A' for Active; 'I' for Inactive)
REMARK    1  A    between atoms: C1_1  and  N1_2
REMARK    2  A    between atoms: N3_9  and  C8_14
REMARK    3  A    between atoms: N4_12  and  C7_13
REMARK                            x       y       z     vdW  Elec       q    Type
REMARK                         _______ _______ _______ _____ _____    ______ ____
ROOT
ATOM      1  C1  UNL     1     -17.016  66.203   2.907  0.00  0.00    +0.000 C 
ATOM      2  N1  UNL     1     -17.293  64.770   2.936  0.00  0.00    +0.000 N 
ATOM      3  C2  UNL     1     -17.900  64.036   1.971  0.00  0.00    +0.000 C 
ATOM      4  N2  UNL     1     -18.032  62.726   2.301  0.00  0.00    +0.000 NA
ATOM      5  C3  UNL     1     -17.472  62.666   3.526  0.00  0.00    +0.000 C 
ATOM      6  C4  UNL     1     -17.031  63.886   3.913  0.00  0.00    +0.000 C 
ATOM      7  C5  UNL     1     -16.442  64.060   5.157  0.00  0.00    +0.000 C 
ATOM      8  O1  UNL     1     -16.050  65.201   5.527  0.00  0.00    +0.000 OA
ATOM      9  N3  UNL     1     -16.309  62.959   5.975  0.00  0.00    +0.000 N 
ATOM     10  C6  UNL     1     -16.795  61.727   5.569  0.00  0.00    +0.000 C 
ATOM     11  O2  UNL     1     -16.730  60.738   6.353  0.00  0.00    +0.000 OA
ATOM     12  N4  UNL     1     -17.359  61.568   4.320  0.00  0.00    +0.000 N 
ATOM     13  C7  UNL     1     -17.898  60.271   3.890  0.00  0.00    +0.000 C 
ATOM     14  C8  UNL     1     -15.724  63.111   7.317  0.00  0.00    +0.000 C 
ENDROOT
TORSDOF 0
ENDMDL
MODEL 6
REMARK VINA RESULT:      -2.9      1.916      3.922
REMARK  Name = .\Caffeine.pdb
REMARK  3 active torsions:
REMARK  status: ('A' for Active; 'I' for Inactive)
REMARK    1  A    between atoms: C1_1  and  N1_2
REMARK    2  A    between atoms: N3_9  and  C8_14
REMARK    3  A    between atoms: N4_12  and  C7_13
REMARK                            x       y       z     vdW  Elec       q    Type
REMARK                         _______ _______ _______ _____ _____    ______ ____
ROOT
ATOM      1  C1  UNL     1     -15.082  62.873   6.509  0.00  0.00    +0.000 C 
ATOM      2  N1  UNL     1     -16.414  62.352   6.220  0.00  0.00    +0.000 N 
ATOM      3  C2  UNL     1     -17.506  63.064   5.847  0.00  0.00    +0.000 C 
ATOM      4  N2  UNL     1     -18.610  62.294   5.668  0.00  0.00    +0.000 NA
ATOM      5  C3  UNL     1     -18.159  61.053   5.945  0.00  0.00    +0.000 C 
ATOM      6  C4  UNL     1     -16.848  61.082   6.278  0.00  0.00    +0.000 C 
ATOM      7  C5  UNL     1     -16.184  59.914   6.628  0.00  0.00    +0.000 C 
ATOM      8  O1  UNL     1     -14.968  59.944   6.960  0.00  0.00    +0.000 OA
ATOM      9  N3  UNL     1     -16.893  58.733   6.612  0.00  0.00    +0.000 N 
ATOM     10  C6  UNL     1     -18.241  58.733   6.296  0.00  0.00    +0.000 C 
ATOM     11  O2  UNL     1     -18.899  57.656   6.350  0.00  0.00    +0.000 OA
ATOM     12  N4  UNL     1     -18.880  59.900   5.930  0.00  0.00    +0.000 N 
ATOM     13  C7  UNL     1     -20.315  59.915   5.616  0.00  0.00    +0.000 C 
ATOM     14  C8  UNL     1     -16.234  57.479   7.014  0.00  0.00    +0.000 C 
ENDROOT
TORSDOF 0
ENDMDL
MODEL 7
REMARK VINA RESULT:      -2.5      2.900      5.234
REMARK  Name = .\Caffeine.pdb
REMARK  3 active torsions:
REMARK  status: ('A' for Active; 'I' for Inactive)
REMARK    1  A    between atoms: C1_1  and  N1_2
REMARK    2  A    between atoms: N3_9  and  C8_14
REMARK    3  A    between atoms: N4_12  and  C7_13
REMARK                            x       y       z     vdW  Elec       q    Type
REMARK                         _______ _______ _______ _____ _____    ______ ____
ROOT
ATOM      1  C1  UNL     1     -17.669  63.737   0.262  0.00  0.00    +0.000 C 
ATOM      2  N1  UNL     1     -17.508  64.534   1.474  0.00  0.00    +0.000 N 
ATOM      3  C2  UNL     1     -17.387  65.882   1.554  0.00  0.00    +0.000 C 
ATOM      4  N2  UNL     1     -17.231  66.330   2.827  0.00  0.00    +0.000 NA
ATOM      5  C3  UNL     1     -17.263  65.193   3.551  0.00  0.00    +0.000 C 
ATOM      6  C4  UNL     1     -17.425  64.116   2.748  0.00  0.00    +0.000 C 
ATOM      7  C5  UNL     1     -17.459  62.836   3.284  0.00  0.00    +0.000 C 
ATOM      8  O1  UNL     1     -17.589  61.830   2.533  0.00  0.00    +0.000 OA
ATOM      9  N3  UNL     1     -17.337  62.698   4.649  0.00  0.00    +0.000 N 
ATOM     10  C6  UNL     1     -17.142  63.813   5.447  0.00  0.00    +0.000 C 
ATOM     11  O2  UNL     1     -16.963  63.671   6.690  0.00  0.00    +0.000 OA
ATOM     12  N4  UNL     1     -17.132  65.080   4.900  0.00  0.00    +0.000 N 
ATOM     13  C7  UNL     1     -16.902  66.266   5.735  0.00  0.00    +0.000 C 
ATOM     14  C8  UNL     1     -17.330  61.355   5.251  0.00  0.00    +0.000 C 
ENDROOT
TORSDOF 0
ENDMDL
MODEL 8
REMARK VINA RESULT:      -2.5      2.017      4.795
REMARK  Name = .\Caffeine.pdb
REMARK  3 active torsions:
REMARK  status: ('A' for Active; 'I' for Inactive)
REMARK    1  A    between atoms: C1_1  and  N1_2
REMARK    2  A    between atoms: N3_9  and  C8_14
REMARK    3  A    between atoms: N4_12  and  C7_13
REMARK                            x       y       z     vdW  Elec       q    Type
REMARK                         _______ _______ _______ _____ _____    ______ ____
ROOT
ATOM      1  C1  UNL     1     -17.830  65.077   4.558  0.00  0.00    +0.000 C 
ATOM      2  N1  UNL     1     -16.985  64.073   5.195  0.00  0.00    +0.000 N 
ATOM      3  C2  UNL     1     -15.709  64.234   5.625  0.00  0.00    +0.000 C 
ATOM      4  N2  UNL     1     -15.180  63.104   6.162  0.00  0.00    +0.000 NA
ATOM      5  C3  UNL     1     -16.190  62.218   6.052  0.00  0.00    +0.000 C 
ATOM      6  C4  UNL     1     -17.270  62.790   5.473  0.00  0.00    +0.000 C 
ATOM      7  C5  UNL     1     -18.420  62.048   5.238  0.00  0.00    +0.000 C 
ATOM      8  O1  UNL     1     -19.420  62.575   4.678  0.00  0.00    +0.000 OA
ATOM      9  N3  UNL     1     -18.431  60.725   5.622  0.00  0.00    +0.000 N 
ATOM     10  C6  UNL     1     -17.302  60.154   6.187  0.00  0.00    +0.000 C 
ATOM     11  O2  UNL     1     -17.298  58.924   6.474  0.00  0.00    +0.000 OA
ATOM     12  N4  UNL     1     -16.175  60.912   6.432  0.00  0.00    +0.000 N 
ATOM     13  C7  UNL     1     -14.966  60.310   7.008  0.00  0.00    +0.000 C 
ATOM     14  C8  UNL     1     -19.617  59.895   5.356  0.00  0.00    +0.000 C 
ENDROOT
TORSDOF 0
ENDMDL
MODEL 9
REMARK VINA RESULT:      -2.5      1.537      1.537
REMARK  Name = .\Caffeine.pdb
REMARK  3 active torsions:
REMARK  status: ('A' for Active; 'I' for Inactive)
REMARK    1  A    between atoms: C1_1  and  N1_2
REMARK    2  A    between atoms: N3_9  and  C8_14
REMARK    3  A    between atoms: N4_12  and  C7_13
REMARK                            x       y       z     vdW  Elec       q    Type
REMARK                         _______ _______ _______ _____ _____    ______ ____
ROOT
ATOM      1  C1  UNL     1     -17.658  58.046   5.954  0.00  0.00    +0.000 C 
ATOM      2  N1  UNL     1     -18.311  59.328   5.705  0.00  0.00    +0.000 N 
ATOM      3  C2  UNL     1     -19.575  59.526   5.257  0.00  0.00    +0.000 C 
ATOM      4  N2  UNL     1     -19.888  60.839   5.107  0.00  0.00    +0.000 NA
ATOM      5  C3  UNL     1     -18.754  61.464   5.486  0.00  0.00    +0.000 C 
ATOM      6  C4  UNL     1     -17.807  60.565   5.842  0.00  0.00    +0.000 C 
ATOM      7  C5  UNL     1     -16.548  60.991   6.243  0.00  0.00    +0.000 C 
ATOM      8  O1  UNL     1     -15.658  60.153   6.555  0.00  0.00    +0.000 OA
ATOM      9  N3  UNL     1     -16.299  62.345   6.280  0.00  0.00    +0.000 N 
ATOM     10  C6  UNL     1     -17.275  63.244   5.882  0.00  0.00    +0.000 C 
ATOM     11  O2  UNL     1     -17.016  64.480   5.855  0.00  0.00    +0.000 OA
ATOM     12  N4  UNL     1     -18.528  62.805   5.507  0.00  0.00    +0.000 N 
ATOM     13  C7  UNL     1     -19.562  63.748   5.061  0.00  0.00    +0.000 C 
ATOM     14  C8  UNL     1     -14.965  62.834   6.663  0.00  0.00    +0.000 C 
ENDROOT
TORSDOF 0
ENDMDL
