MODEL 1
REMARK VINA RESULT:      23.8      0.000      0.000
REMARK  Name = .\Caffeine.pdb
REMARK  3 active torsions:
REMARK  status: ('A' for Active; 'I' for Inactive)
REMARK    1  A    between atoms: C1_1  and  N1_2
REMARK    2  A    between atoms: N3_9  and  C8_14
REMARK    3  A    between atoms: N4_12  and  C7_13
REMARK                            x       y       z     vdW  Elec       q    Type
REMARK                         _______ _______ _______ _____ _____    ______ ____
ROOT
ATOM      1  C1  UNL     1       0.297  56.204  30.258  0.00  0.00    +0.000 C 
ATOM      2  N1  UNL     1      -0.650  55.718  29.260  0.00  0.00    +0.000 N 
ATOM      3  C2  UNL     1      -1.968  56.024  29.169  0.00  0.00    +0.000 C 
ATOM      4  N2  UNL     1      -2.591  55.397  28.138  0.00  0.00    +0.000 NA
ATOM      5  C3  UNL     1      -1.597  54.679  27.578  0.00  0.00    +0.000 C 
ATOM      6  C4  UNL     1      -0.435  54.864  28.246  0.00  0.00    +0.000 C 
ATOM      7  C5  UNL     1       0.717  54.197  27.853  0.00  0.00    +0.000 C 
ATOM      8  O1  UNL     1       1.796  54.354  28.489  0.00  0.00    +0.000 OA
ATOM      9  N3  UNL     1       0.645  53.358  26.764  0.00  0.00    +0.000 N 
ATOM     10  C6  UNL     1      -0.563  53.161  26.115  0.00  0.00    +0.000 C 
ATOM     11  O2  UNL     1      -0.635  52.338  25.159  0.00  0.00    +0.000 OA
ATOM     12  N4  UNL     1      -1.694  53.849  26.505  0.00  0.00    +0.000 N 
ATOM     13  C7  UNL     1      -2.984  53.630  25.838  0.00  0.00    +0.000 C 
ATOM     14  C8  UNL     1       1.836  52.603  26.340  0.00  0.00    +0.000 C 
ENDROOT
TORSDOF 0
ENDMDL
MODEL 2
REMARK VINA RESULT:      26.3      1.536      3.670
REMARK  Name = .\Caffeine.pdb
REMARK  3 active torsions:
REMARK  status: ('A' for Active; 'I' for Inactive)
REMARK    1  A    between atoms: C1_1  and  N1_2
REMARK    2  A    between atoms: N3_9  and  C8_14
REMARK    3  A    between atoms: N4_12  and  C7_13
REMARK                            x       y       z     vdW  Elec       q    Type
REMARK                         _______ _______ _______ _____ _____    ______ ____
ROOT
ATOM      1  C1  UNL     1       1.839  52.693  25.950  0.00  0.00    +0.000 C 
ATOM      2  N1  UNL     1       0.441  52.945  26.285  0.00  0.00    +0.000 N 
ATOM      3  C2  UNL     1      -0.651  52.399  25.694  0.00  0.00    +0.000 C 
ATOM      4  N2  UNL     1      -1.821  52.847  26.218  0.00  0.00    +0.000 NA
ATOM      5  C3  UNL     1      -1.413  53.705  27.175  0.00  0.00    +0.000 C 
ATOM      6  C4  UNL     1      -0.063  53.770  27.217  0.00  0.00    +0.000 C 
ATOM      7  C5  UNL     1       0.574  54.616  28.116  0.00  0.00    +0.000 C 
ATOM      8  O1  UNL     1       1.833  54.692  28.142  0.00  0.00    +0.000 OA
ATOM      9  N3  UNL     1      -0.206  55.370  28.964  0.00  0.00    +0.000 N 
ATOM     10  C6  UNL     1      -1.587  55.309  28.881  0.00  0.00    +0.000 C 
ATOM     11  O2  UNL     1      -2.294  56.055  29.616  0.00  0.00    +0.000 OA
ATOM     12  N4  UNL     1      -2.203  54.447  27.997  0.00  0.00    +0.000 N 
ATOM     13  C7  UNL     1      -3.666  54.392  27.885  0.00  0.00    +0.000 C 
ATOM     14  C8  UNL     1       0.431  56.307  29.905  0.00  0.00    +0.000 C 
ENDROOT
TORSDOF 0
ENDMDL
