MODEL 1
REMARK VINA RESULT:      -1.2      0.000      0.000
REMARK  Name = .\Caffeine.pdb
REMARK  3 active torsions:
REMARK  status: ('A' for Active; 'I' for Inactive)
REMARK    1  A    between atoms: C1_1  and  N1_2
REMARK    2  A    between atoms: N3_9  and  C8_14
REMARK    3  A    between atoms: N4_12  and  C7_13
REMARK                            x       y       z     vdW  Elec       q    Type
REMARK                         _______ _______ _______ _____ _____    ______ ____
ROOT
ATOM      1  C1  UNL     1       5.937  46.901  25.878  0.00  0.00    +0.000 C 
ATOM      2  N1  UNL     1       6.760  45.806  25.375  0.00  0.00    +0.000 N 
ATOM      3  C2  UNL     1       6.820  44.541  25.860  0.00  0.00    +0.000 C 
ATOM      4  N2  UNL     1       7.698  43.754  25.187  0.00  0.00    +0.000 NA
ATOM      5  C3  UNL     1       8.190  44.586  24.246  0.00  0.00    +0.000 C 
ATOM      6  C4  UNL     1       7.635  45.815  24.356  0.00  0.00    +0.000 C 
ATOM      7  C5  UNL     1       8.018  46.840  23.501  0.00  0.00    +0.000 C 
ATOM      8  O1  UNL     1       7.516  47.991  23.616  0.00  0.00    +0.000 OA
ATOM      9  N3  UNL     1       8.962  46.564  22.537  0.00  0.00    +0.000 N 
ATOM     10  C6  UNL     1       9.538  45.306  22.464  0.00  0.00    +0.000 C 
ATOM     11  O2  UNL     1      10.452  45.082  21.621  0.00  0.00    +0.000 OA
ATOM     12  N4  UNL     1       9.130  44.294  23.308  0.00  0.00    +0.000 N 
ATOM     13  C7  UNL     1       9.751  42.964  23.254  0.00  0.00    +0.000 C 
ATOM     14  C8  UNL     1       9.422  47.634  21.636  0.00  0.00    +0.000 C 
ENDROOT
TORSDOF 0
ENDMDL
MODEL 2
REMARK VINA RESULT:      -0.8      1.724      3.120
REMARK  Name = .\Caffeine.pdb
REMARK  3 active torsions:
REMARK  status: ('A' for Active; 'I' for Inactive)
REMARK    1  A    between atoms: C1_1  and  N1_2
REMARK    2  A    between atoms: N3_9  and  C8_14
REMARK    3  A    between atoms: N4_12  and  C7_13
REMARK                            x       y       z     vdW  Elec       q    Type
REMARK                         _______ _______ _______ _____ _____    ______ ____
ROOT
ATOM      1  C1  UNL     1       5.910  44.667  27.120  0.00  0.00    +0.000 C 
ATOM      2  N1  UNL     1       6.275  45.651  26.105  0.00  0.00    +0.000 N 
ATOM      3  C2  UNL     1       5.861  46.940  26.032  0.00  0.00    +0.000 C 
ATOM      4  N2  UNL     1       6.361  47.600  24.956  0.00  0.00    +0.000 NA
ATOM      5  C3  UNL     1       7.117  46.662  24.352  0.00  0.00    +0.000 C 
ATOM      6  C4  UNL     1       7.067  45.494  25.032  0.00  0.00    +0.000 C 
ATOM      7  C5  UNL     1       7.755  44.379  24.571  0.00  0.00    +0.000 C 
ATOM      8  O1  UNL     1       7.691  43.284  25.194  0.00  0.00    +0.000 OA
ATOM      9  N3  UNL     1       8.494  44.503  23.415  0.00  0.00    +0.000 N 
ATOM     10  C6  UNL     1       8.505  45.701  22.720  0.00  0.00    +0.000 C 
ATOM     11  O2  UNL     1       9.131  45.785  21.625  0.00  0.00    +0.000 OA
ATOM     12  N4  UNL     1       7.833  46.804  23.204  0.00  0.00    +0.000 N 
ATOM     13  C7  UNL     1       7.820  48.072  22.463  0.00  0.00    +0.000 C 
ATOM     14  C8  UNL     1       9.206  43.334  22.873  0.00  0.00    +0.000 C 
ENDROOT
TORSDOF 0
ENDMDL
MODEL 3
REMARK VINA RESULT:      -0.2      1.632      4.562
REMARK  Name = .\Caffeine.pdb
REMARK  3 active torsions:
REMARK  status: ('A' for Active; 'I' for Inactive)
REMARK    1  A    between atoms: C1_1  and  N1_2
REMARK    2  A    between atoms: N3_9  and  C8_14
REMARK    3  A    between atoms: N4_12  and  C7_13
REMARK                            x       y       z     vdW  Elec       q    Type
REMARK                         _______ _______ _______ _____ _____    ______ ____
ROOT
ATOM      1  C1  UNL     1      10.600  42.870  22.629  0.00  0.00    +0.000 C 
ATOM      2  N1  UNL     1      10.138  44.246  22.472  0.00  0.00    +0.000 N 
ATOM      3  C2  UNL     1      10.630  45.180  21.621  0.00  0.00    +0.000 C 
ATOM      4  N2  UNL     1       9.999  46.378  21.722  0.00  0.00    +0.000 NA
ATOM      5  C3  UNL     1       9.078  46.154  22.681  0.00  0.00    +0.000 C 
ATOM      6  C4  UNL     1       9.159  44.882  23.136  0.00  0.00    +0.000 C 
ATOM      7  C5  UNL     1       8.317  44.441  24.148  0.00  0.00    +0.000 C 
ATOM      8  O1  UNL     1       8.406  43.261  24.586  0.00  0.00    +0.000 OA
ATOM      9  N3  UNL     1       7.397  45.327  24.662  0.00  0.00    +0.000 N 
ATOM     10  C6  UNL     1       7.354  46.633  24.201  0.00  0.00    +0.000 C 
ATOM     11  O2  UNL     1       6.553  47.457  24.726  0.00  0.00    +0.000 OA
ATOM     12  N4  UNL     1       8.183  47.048  23.180  0.00  0.00    +0.000 N 
ATOM     13  C7  UNL     1       8.162  48.436  22.701  0.00  0.00    +0.000 C 
ATOM     14  C8  UNL     1       6.513  44.909  25.763  0.00  0.00    +0.000 C 
ENDROOT
TORSDOF 0
ENDMDL
MODEL 4
REMARK VINA RESULT:      -0.0      1.563      3.577
REMARK  Name = .\Caffeine.pdb
REMARK  3 active torsions:
REMARK  status: ('A' for Active; 'I' for Inactive)
REMARK    1  A    between atoms: C1_1  and  N1_2
REMARK    2  A    between atoms: N3_9  and  C8_14
REMARK    3  A    between atoms: N4_12  and  C7_13
REMARK                            x       y       z     vdW  Elec       q    Type
REMARK                         _______ _______ _______ _____ _____    ______ ____
ROOT
ATOM      1  C1  UNL     1       8.667  49.292  22.661  0.00  0.00    +0.000 C 
ATOM      2  N1  UNL     1       9.274  47.982  22.446  0.00  0.00    +0.000 N 
ATOM      3  C2  UNL     1      10.308  47.687  21.621  0.00  0.00    +0.000 C 
ATOM      4  N2  UNL     1      10.635  46.369  21.624  0.00  0.00    +0.000 NA
ATOM      5  C3  UNL     1       9.753  45.843  22.499  0.00  0.00    +0.000 C 
ATOM      6  C4  UNL     1       8.935  46.802  22.991  0.00  0.00    +0.000 C 
ATOM      7  C5  UNL     1       7.930  46.476  23.892  0.00  0.00    +0.000 C 
ATOM      8  O1  UNL     1       7.153  47.366  24.335  0.00  0.00    +0.000 OA
ATOM      9  N3  UNL     1       7.801  45.160  24.276  0.00  0.00    +0.000 N 
ATOM     10  C6  UNL     1       8.632  44.192  23.735  0.00  0.00    +0.000 C 
ATOM     11  O2  UNL     1       8.462  42.978  24.042  0.00  0.00    +0.000 OA
ATOM     12  N4  UNL     1       9.639  44.536  22.857  0.00  0.00    +0.000 N 
ATOM     13  C7  UNL     1      10.509  43.514  22.261  0.00  0.00    +0.000 C 
ATOM     14  C8  UNL     1       6.724  44.769  25.200  0.00  0.00    +0.000 C 
ENDROOT
TORSDOF 0
ENDMDL
