MODEL 1
REMARK VINA RESULT:      -5.3      0.000      0.000
REMARK  Name = .\Caffeine.pdb
REMARK  3 active torsions:
REMARK  status: ('A' for Active; 'I' for Inactive)
REMARK    1  A    between atoms: C1_1  and  N1_2
REMARK    2  A    between atoms: N3_9  and  C8_14
REMARK    3  A    between atoms: N4_12  and  C7_13
REMARK                            x       y       z     vdW  Elec       q    Type
REMARK                         _______ _______ _______ _____ _____    ______ ____
ROOT
ATOM      1  C1  UNL     1       2.621  54.988 -21.725  0.00  0.00    +0.000 C 
ATOM      2  N1  UNL     1       1.958  54.849 -23.018  0.00  0.00    +0.000 N 
ATOM      3  C2  UNL     1       2.433  55.243 -24.225  0.00  0.00    +0.000 C 
ATOM      4  N2  UNL     1       1.572  54.993 -25.245  0.00  0.00    +0.000 NA
ATOM      5  C3  UNL     1       0.525  54.416 -24.620  0.00  0.00    +0.000 C 
ATOM      6  C4  UNL     1       0.749  54.331 -23.289  0.00  0.00    +0.000 C 
ATOM      7  C5  UNL     1      -0.214  53.791 -22.446  0.00  0.00    +0.000 C 
ATOM      8  O1  UNL     1      -0.014  53.730 -21.202  0.00  0.00    +0.000 OA
ATOM      9  N3  UNL     1      -1.388  53.338 -23.005  0.00  0.00    +0.000 N 
ATOM     10  C6  UNL     1      -1.606  53.464 -24.367  0.00  0.00    +0.000 C 
ATOM     11  O2  UNL     1      -2.713  53.108 -24.861  0.00  0.00    +0.000 OA
ATOM     12  N4  UNL     1      -0.630  53.983 -25.193  0.00  0.00    +0.000 N 
ATOM     13  C7  UNL     1      -0.860  54.143 -26.634  0.00  0.00    +0.000 C 
ATOM     14  C8  UNL     1      -2.448  52.794 -22.140  0.00  0.00    +0.000 C 
ENDROOT
TORSDOF 0
ENDMDL
MODEL 2
REMARK VINA RESULT:      -5.1      1.537      3.023
REMARK  Name = .\Caffeine.pdb
REMARK  3 active torsions:
REMARK  status: ('A' for Active; 'I' for Inactive)
REMARK    1  A    between atoms: C1_1  and  N1_2
REMARK    2  A    between atoms: N3_9  and  C8_14
REMARK    3  A    between atoms: N4_12  and  C7_13
REMARK                            x       y       z     vdW  Elec       q    Type
REMARK                         _______ _______ _______ _____ _____    ______ ____
ROOT
ATOM      1  C1  UNL     1       3.169  54.607 -22.988  0.00  0.00    +0.000 C 
ATOM      2  N1  UNL     1       1.860  54.081 -22.611  0.00  0.00    +0.000 N 
ATOM      3  C2  UNL     1       1.493  53.599 -21.398  0.00  0.00    +0.000 C 
ATOM      4  N2  UNL     1       0.208  53.162 -21.365  0.00  0.00    +0.000 NA
ATOM      5  C3  UNL     1      -0.222  53.395 -22.622  0.00  0.00    +0.000 C 
ATOM      6  C4  UNL     1       0.763  53.941 -23.372  0.00  0.00    +0.000 C 
ATOM      7  C5  UNL     1       0.545  54.239 -24.711  0.00  0.00    +0.000 C 
ATOM      8  O1  UNL     1       1.470  54.729 -25.416  0.00  0.00    +0.000 OA
ATOM      9  N3  UNL     1      -0.697  53.976 -25.243  0.00  0.00    +0.000 N 
ATOM     10  C6  UNL     1      -1.680  53.389 -24.463  0.00  0.00    +0.000 C 
ATOM     11  O2  UNL     1      -2.794  53.089 -24.977  0.00  0.00    +0.000 OA
ATOM     12  N4  UNL     1      -1.453  53.119 -23.129  0.00  0.00    +0.000 N 
ATOM     13  C7  UNL     1      -2.480  52.475 -22.299  0.00  0.00    +0.000 C 
ATOM     14  C8  UNL     1      -0.955  54.242 -26.668  0.00  0.00    +0.000 C 
ENDROOT
TORSDOF 0
ENDMDL
MODEL 3
REMARK VINA RESULT:      -4.9      2.021      3.933
REMARK  Name = .\Caffeine.pdb
REMARK  3 active torsions:
REMARK  status: ('A' for Active; 'I' for Inactive)
REMARK    1  A    between atoms: C1_1  and  N1_2
REMARK    2  A    between atoms: N3_9  and  C8_14
REMARK    3  A    between atoms: N4_12  and  C7_13
REMARK                            x       y       z     vdW  Elec       q    Type
REMARK                         _______ _______ _______ _____ _____    ______ ____
ROOT
ATOM      1  C1  UNL     1      -1.708  54.637 -25.754  0.00  0.00    +0.000 C 
ATOM      2  N1  UNL     1      -1.138  54.346 -24.442  0.00  0.00    +0.000 N 
ATOM      3  C2  UNL     1      -0.162  55.039 -23.804  0.00  0.00    +0.000 C 
ATOM      4  N2  UNL     1       0.169  54.507 -22.599  0.00  0.00    +0.000 NA
ATOM      5  C3  UNL     1      -0.651  53.441 -22.505  0.00  0.00    +0.000 C 
ATOM      6  C4  UNL     1      -1.432  53.337 -23.605  0.00  0.00    +0.000 C 
ATOM      7  C5  UNL     1      -2.336  52.291 -23.732  0.00  0.00    +0.000 C 
ATOM      8  O1  UNL     1      -3.050  52.182 -24.766  0.00  0.00    +0.000 OA
ATOM      9  N3  UNL     1      -2.422  51.377 -22.705  0.00  0.00    +0.000 N 
ATOM     10  C6  UNL     1      -1.590  51.488 -21.602  0.00  0.00    +0.000 C 
ATOM     11  O2  UNL     1      -1.628  50.607 -20.697  0.00  0.00    +0.000 OA
ATOM     12  N4  UNL     1      -0.712  52.545 -21.484  0.00  0.00    +0.000 N 
ATOM     13  C7  UNL     1       0.189  52.658 -20.330  0.00  0.00    +0.000 C 
ATOM     14  C8  UNL     1      -3.341  50.233 -22.818  0.00  0.00    +0.000 C 
ENDROOT
TORSDOF 0
ENDMDL
MODEL 4
REMARK VINA RESULT:      -4.8      1.681      4.013
REMARK  Name = .\Caffeine.pdb
REMARK  3 active torsions:
REMARK  status: ('A' for Active; 'I' for Inactive)
REMARK    1  A    between atoms: C1_1  and  N1_2
REMARK    2  A    between atoms: N3_9  and  C8_14
REMARK    3  A    between atoms: N4_12  and  C7_13
REMARK                            x       y       z     vdW  Elec       q    Type
REMARK                         _______ _______ _______ _____ _____    ______ ____
ROOT
ATOM      1  C1  UNL     1      -3.042  52.421 -21.551  0.00  0.00    +0.000 C 
ATOM      2  N1  UNL     1      -1.677  52.927 -21.648  0.00  0.00    +0.000 N 
ATOM      3  C2  UNL     1      -0.786  53.071 -20.635  0.00  0.00    +0.000 C 
ATOM      4  N2  UNL     1       0.402  53.588 -21.040  0.00  0.00    +0.000 NA
ATOM      5  C3  UNL     1       0.219  53.763 -22.364  0.00  0.00    +0.000 C 
ATOM      6  C4  UNL     1      -1.023  53.373 -22.733  0.00  0.00    +0.000 C 
ATOM      7  C5  UNL     1      -1.436  53.490 -24.053  0.00  0.00    +0.000 C 
ATOM      8  O1  UNL     1      -2.601  53.146 -24.394  0.00  0.00    +0.000 OA
ATOM      9  N3  UNL     1      -0.544  54.000 -24.971  0.00  0.00    +0.000 N 
ATOM     10  C6  UNL     1       0.711  54.421 -24.564  0.00  0.00    +0.000 C 
ATOM     11  O2  UNL     1       1.498  54.950 -25.399  0.00  0.00    +0.000 OA
ATOM     12  N4  UNL     1       1.112  54.277 -23.252  0.00  0.00    +0.000 N 
ATOM     13  C7  UNL     1       2.432  54.742 -22.805  0.00  0.00    +0.000 C 
ATOM     14  C8  UNL     1      -0.957  54.177 -26.373  0.00  0.00    +0.000 C 
ENDROOT
TORSDOF 0
ENDMDL
MODEL 5
REMARK VINA RESULT:      -4.6      1.707      3.601
REMARK  Name = .\Caffeine.pdb
REMARK  3 active torsions:
REMARK  status: ('A' for Active; 'I' for Inactive)
REMARK    1  A    between atoms: C1_1  and  N1_2
REMARK    2  A    between atoms: N3_9  and  C8_14
REMARK    3  A    between atoms: N4_12  and  C7_13
REMARK                            x       y       z     vdW  Elec       q    Type
REMARK                         _______ _______ _______ _____ _____    ______ ____
ROOT
ATOM      1  C1  UNL     1      -1.311  52.636 -20.298  0.00  0.00    +0.000 C 
ATOM      2  N1  UNL     1      -1.317  52.963 -21.720  0.00  0.00    +0.000 N 
ATOM      3  C2  UNL     1      -2.311  52.718 -22.609  0.00  0.00    +0.000 C 
ATOM      4  N2  UNL     1      -2.012  53.126 -23.870  0.00  0.00    +0.000 NA
ATOM      5  C3  UNL     1      -0.775  53.645 -23.732  0.00  0.00    +0.000 C 
ATOM      6  C4  UNL     1      -0.353  53.548 -22.450  0.00  0.00    +0.000 C 
ATOM      7  C5  UNL     1       0.909  53.999 -22.087  0.00  0.00    +0.000 C 
ATOM      8  O1  UNL     1       1.310  53.890 -20.896  0.00  0.00    +0.000 OA
ATOM      9  N3  UNL     1       1.706  54.556 -23.062  0.00  0.00    +0.000 N 
ATOM     10  C6  UNL     1       1.264  54.617 -24.374  0.00  0.00    +0.000 C 
ATOM     11  O2  UNL     1       2.029  55.067 -25.273  0.00  0.00    +0.000 OA
ATOM     12  N4  UNL     1      -0.001  54.183 -24.713  0.00  0.00    +0.000 N 
ATOM     13  C7  UNL     1      -0.470  54.222 -26.104  0.00  0.00    +0.000 C 
ATOM     14  C8  UNL     1       3.065  55.011 -22.725  0.00  0.00    +0.000 C 
ENDROOT
TORSDOF 0
ENDMDL
MODEL 6
REMARK VINA RESULT:      -4.5      2.437      4.039
REMARK  Name = .\Caffeine.pdb
REMARK  3 active torsions:
REMARK  status: ('A' for Active; 'I' for Inactive)
REMARK    1  A    between atoms: C1_1  and  N1_2
REMARK    2  A    between atoms: N3_9  and  C8_14
REMARK    3  A    between atoms: N4_12  and  C7_13
REMARK                            x       y       z     vdW  Elec       q    Type
REMARK                         _______ _______ _______ _____ _____    ______ ____
ROOT
ATOM      1  C1  UNL     1      -0.410  55.066 -24.005  0.00  0.00    +0.000 C 
ATOM      2  N1  UNL     1      -1.258  53.884 -23.883  0.00  0.00    +0.000 N 
ATOM      3  C2  UNL     1      -2.121  53.400 -24.811  0.00  0.00    +0.000 C 
ATOM      4  N2  UNL     1      -2.784  52.291 -24.394  0.00  0.00    +0.000 NA
ATOM      5  C3  UNL     1      -2.293  52.094 -23.154  0.00  0.00    +0.000 C 
ATOM      6  C4  UNL     1      -1.383  53.046 -22.842  0.00  0.00    +0.000 C 
ATOM      7  C5  UNL     1      -0.767  53.051 -21.597  0.00  0.00    +0.000 C 
ATOM      8  O1  UNL     1       0.066  53.950 -21.298  0.00  0.00    +0.000 OA
ATOM      9  N3  UNL     1      -1.100  52.058 -20.702  0.00  0.00    +0.000 N 
ATOM     10  C6  UNL     1      -2.057  51.113 -21.034  0.00  0.00    +0.000 C 
ATOM     11  O2  UNL     1      -2.405  50.247 -20.182  0.00  0.00    +0.000 OA
ATOM     12  N4  UNL     1      -2.643  51.110 -22.283  0.00  0.00    +0.000 N 
ATOM     13  C7  UNL     1      -3.675  50.127 -22.635  0.00  0.00    +0.000 C 
ATOM     14  C8  UNL     1      -0.498  52.052 -19.359  0.00  0.00    +0.000 C 
ENDROOT
TORSDOF 0
ENDMDL
MODEL 7
REMARK VINA RESULT:      -4.5      1.096      3.429
REMARK  Name = .\Caffeine.pdb
REMARK  3 active torsions:
REMARK  status: ('A' for Active; 'I' for Inactive)
REMARK    1  A    between atoms: C1_1  and  N1_2
REMARK    2  A    between atoms: N3_9  and  C8_14
REMARK    3  A    between atoms: N4_12  and  C7_13
REMARK                            x       y       z     vdW  Elec       q    Type
REMARK                         _______ _______ _______ _____ _____    ______ ____
ROOT
ATOM      1  C1  UNL     1      -0.979  54.113 -26.460  0.00  0.00    +0.000 C 
ATOM      2  N1  UNL     1      -0.098  54.125 -25.297  0.00  0.00    +0.000 N 
ATOM      3  C2  UNL     1       1.225  54.424 -25.278  0.00  0.00    +0.000 C 
ATOM      4  N2  UNL     1       1.776  54.328 -24.041  0.00  0.00    +0.000 NA
ATOM      5  C3  UNL     1       0.731  53.956 -23.274  0.00  0.00    +0.000 C 
ATOM      6  C4  UNL     1      -0.391  53.830 -24.020  0.00  0.00    +0.000 C 
ATOM      7  C5  UNL     1      -1.585  53.428 -23.435  0.00  0.00    +0.000 C 
ATOM      8  O1  UNL     1      -2.626  53.290 -24.134  0.00  0.00    +0.000 OA
ATOM      9  N3  UNL     1      -1.594  53.176 -22.082  0.00  0.00    +0.000 N 
ATOM     10  C6  UNL     1      -0.426  53.283 -21.345  0.00  0.00    +0.000 C 
ATOM     11  O2  UNL     1      -0.429  52.985 -20.117  0.00  0.00    +0.000 OA
ATOM     12  N4  UNL     1       0.747  53.704 -21.938  0.00  0.00    +0.000 N 
ATOM     13  C7  UNL     1       1.995  53.798 -21.170  0.00  0.00    +0.000 C 
ATOM     14  C8  UNL     1      -2.831  52.711 -21.432  0.00  0.00    +0.000 C 
ENDROOT
TORSDOF 0
ENDMDL
MODEL 8
REMARK VINA RESULT:      -4.4      2.411      5.055
REMARK  Name = .\Caffeine.pdb
REMARK  3 active torsions:
REMARK  status: ('A' for Active; 'I' for Inactive)
REMARK    1  A    between atoms: C1_1  and  N1_2
REMARK    2  A    between atoms: N3_9  and  C8_14
REMARK    3  A    between atoms: N4_12  and  C7_13
REMARK                            x       y       z     vdW  Elec       q    Type
REMARK                         _______ _______ _______ _____ _____    ______ ____
ROOT
ATOM      1  C1  UNL     1      -1.168  54.246 -24.490  0.00  0.00    +0.000 C 
ATOM      2  N1  UNL     1      -0.302  54.050 -23.331  0.00  0.00    +0.000 N 
ATOM      3  C2  UNL     1      -0.684  53.955 -22.034  0.00  0.00    +0.000 C 
ATOM      4  N2  UNL     1       0.360  53.793 -21.181  0.00  0.00    +0.000 NA
ATOM      5  C3  UNL     1       1.425  53.787 -22.007  0.00  0.00    +0.000 C 
ATOM      6  C4  UNL     1       1.036  53.944 -23.293  0.00  0.00    +0.000 C 
ATOM      7  C5  UNL     1       1.977  53.993 -24.313  0.00  0.00    +0.000 C 
ATOM      8  O1  UNL     1       1.616  54.160 -25.510  0.00  0.00    +0.000 OA
ATOM      9  N3  UNL     1       3.307  53.865 -23.978  0.00  0.00    +0.000 N 
ATOM     10  C6  UNL     1       3.683  53.736 -22.651  0.00  0.00    +0.000 C 
ATOM     11  O2  UNL     1       4.908  53.688 -22.348  0.00  0.00    +0.000 OA
ATOM     12  N4  UNL     1       2.733  53.668 -21.653  0.00  0.00    +0.000 N 
ATOM     13  C7  UNL     1       3.122  53.555 -20.241  0.00  0.00    +0.000 C 
ATOM     14  C8  UNL     1       4.337  53.951 -25.027  0.00  0.00    +0.000 C 
ENDROOT
TORSDOF 0
ENDMDL
MODEL 9
REMARK VINA RESULT:      -4.4      2.385      3.522
REMARK  Name = .\Caffeine.pdb
REMARK  3 active torsions:
REMARK  status: ('A' for Active; 'I' for Inactive)
REMARK    1  A    between atoms: C1_1  and  N1_2
REMARK    2  A    between atoms: N3_9  and  C8_14
REMARK    3  A    between atoms: N4_12  and  C7_13
REMARK                            x       y       z     vdW  Elec       q    Type
REMARK                         _______ _______ _______ _____ _____    ______ ____
ROOT
ATOM      1  C1  UNL     1       4.427  53.955 -24.991  0.00  0.00    +0.000 C 
ATOM      2  N1  UNL     1       3.651  53.416 -23.880  0.00  0.00    +0.000 N 
ATOM      3  C2  UNL     1       4.120  52.699 -22.828  0.00  0.00    +0.000 C 
ATOM      4  N2  UNL     1       3.145  52.320 -21.963  0.00  0.00    +0.000 NA
ATOM      5  C3  UNL     1       2.031  52.836 -22.520  0.00  0.00    +0.000 C 
ATOM      6  C4  UNL     1       2.327  53.490 -23.668  0.00  0.00    +0.000 C 
ATOM      7  C5  UNL     1       1.321  54.079 -24.422  0.00  0.00    +0.000 C 
ATOM      8  O1  UNL     1       1.594  54.670 -25.503  0.00  0.00    +0.000 OA
ATOM      9  N3  UNL     1       0.026  53.990 -23.963  0.00  0.00    +0.000 N 
ATOM     10  C6  UNL     1      -0.256  53.289 -22.802  0.00  0.00    +0.000 C 
ATOM     11  O2  UNL     1      -1.454  53.155 -22.425  0.00  0.00    +0.000 OA
ATOM     12  N4  UNL     1       0.758  52.728 -22.053  0.00  0.00    +0.000 N 
ATOM     13  C7  UNL     1       0.468  51.964 -20.833  0.00  0.00    +0.000 C 
ATOM     14  C8  UNL     1      -1.073  54.568 -24.755  0.00  0.00    +0.000 C 
ENDROOT
TORSDOF 0
ENDMDL
