MODEL 1
REMARK VINA RESULT:      -3.6      0.000      0.000
REMARK  Name = .\Caffeine.pdb
REMARK  3 active torsions:
REMARK  status: ('A' for Active; 'I' for Inactive)
REMARK    1  A    between atoms: C1_1  and  N1_2
REMARK    2  A    between atoms: N3_9  and  C8_14
REMARK    3  A    between atoms: N4_12  and  C7_13
REMARK                            x       y       z     vdW  Elec       q    Type
REMARK                         _______ _______ _______ _____ _____    ______ ____
ROOT
ATOM      1  C1  UNL     1      -5.025  86.869  61.713  0.00  0.00    +0.000 C 
ATOM      2  N1  UNL     1      -3.819  87.006  62.525  0.00  0.00    +0.000 N 
ATOM      3  C2  UNL     1      -3.671  87.753  63.647  0.00  0.00    +0.000 C 
ATOM      4  N2  UNL     1      -2.418  87.690  64.168  0.00  0.00    +0.000 NA
ATOM      5  C3  UNL     1      -1.780  86.860  63.318  0.00  0.00    +0.000 C 
ATOM      6  C4  UNL     1      -2.612  86.450  62.332  0.00  0.00    +0.000 C 
ATOM      7  C5  UNL     1      -2.153  85.608  61.328  0.00  0.00    +0.000 C 
ATOM      8  O1  UNL     1      -2.922  85.243  60.397  0.00  0.00    +0.000 OA
ATOM      9  N3  UNL     1      -0.840  85.194  61.375  0.00  0.00    +0.000 N 
ATOM     10  C6  UNL     1      -0.000  85.651  62.377  0.00  0.00    +0.000 C 
ATOM     11  O2  UNL     1       1.219  85.321  62.373  0.00  0.00    +0.000 OA
ATOM     12  N4  UNL     1      -0.478  86.471  63.379  0.00  0.00    +0.000 N 
ATOM     13  C7  UNL     1       0.409  86.980  64.433  0.00  0.00    +0.000 C 
ATOM     14  C8  UNL     1      -0.306  84.332  60.308  0.00  0.00    +0.000 C 
ENDROOT
TORSDOF 0
ENDMDL
MODEL 2
REMARK VINA RESULT:      -3.5      1.927      3.333
REMARK  Name = .\Caffeine.pdb
REMARK  3 active torsions:
REMARK  status: ('A' for Active; 'I' for Inactive)
REMARK    1  A    between atoms: C1_1  and  N1_2
REMARK    2  A    between atoms: N3_9  and  C8_14
REMARK    3  A    between atoms: N4_12  and  C7_13
REMARK                            x       y       z     vdW  Elec       q    Type
REMARK                         _______ _______ _______ _____ _____    ______ ____
ROOT
ATOM      1  C1  UNL     1      -4.035  85.399  61.694  0.00  0.00    +0.000 C 
ATOM      2  N1  UNL     1      -2.585  85.288  61.568  0.00  0.00    +0.000 N 
ATOM      3  C2  UNL     1      -1.893  84.799  60.509  0.00  0.00    +0.000 C 
ATOM      4  N2  UNL     1      -0.549  84.809  60.700  0.00  0.00    +0.000 NA
ATOM      5  C3  UNL     1      -0.424  85.334  61.936  0.00  0.00    +0.000 C 
ATOM      6  C4  UNL     1      -1.638  85.619  62.461  0.00  0.00    +0.000 C 
ATOM      7  C5  UNL     1      -1.746  86.146  63.741  0.00  0.00    +0.000 C 
ATOM      8  O1  UNL     1      -2.879  86.393  64.239  0.00  0.00    +0.000 OA
ATOM      9  N3  UNL     1      -0.588  86.380  64.448  0.00  0.00    +0.000 N 
ATOM     10  C6  UNL     1       0.642  86.052  63.901  0.00  0.00    +0.000 C 
ATOM     11  O2  UNL     1       1.694  86.206  64.583  0.00  0.00    +0.000 OA
ATOM     12  N4  UNL     1       0.732  85.549  62.619  0.00  0.00    +0.000 N 
ATOM     13  C7  UNL     1       2.028  85.176  62.039  0.00  0.00    +0.000 C 
ATOM     14  C8  UNL     1      -0.662  86.901  65.823  0.00  0.00    +0.000 C 
ENDROOT
TORSDOF 0
ENDMDL
MODEL 3
REMARK VINA RESULT:      -3.5      1.520      3.643
REMARK  Name = .\Caffeine.pdb
REMARK  3 active torsions:
REMARK  status: ('A' for Active; 'I' for Inactive)
REMARK    1  A    between atoms: C1_1  and  N1_2
REMARK    2  A    between atoms: N3_9  and  C8_14
REMARK    3  A    between atoms: N4_12  and  C7_13
REMARK                            x       y       z     vdW  Elec       q    Type
REMARK                         _______ _______ _______ _____ _____    ______ ____
ROOT
ATOM      1  C1  UNL     1      -0.164  84.142  60.211  0.00  0.00    +0.000 C 
ATOM      2  N1  UNL     1      -0.220  85.002  61.389  0.00  0.00    +0.000 N 
ATOM      3  C2  UNL     1       0.789  85.264  62.257  0.00  0.00    +0.000 C 
ATOM      4  N2  UNL     1       0.421  86.092  63.269  0.00  0.00    +0.000 NA
ATOM      5  C3  UNL     1      -0.875  86.343  62.996  0.00  0.00    +0.000 C 
ATOM      6  C4  UNL     1      -1.265  85.692  61.875  0.00  0.00    +0.000 C 
ATOM      7  C5  UNL     1      -2.574  85.790  61.423  0.00  0.00    +0.000 C 
ATOM      8  O1  UNL     1      -2.943  85.166  60.390  0.00  0.00    +0.000 OA
ATOM      9  N3  UNL     1      -3.453  86.574  62.137  0.00  0.00    +0.000 N 
ATOM     10  C6  UNL     1      -3.038  87.206  63.298  0.00  0.00    +0.000 C 
ATOM     11  O2  UNL     1      -3.868  87.867  63.983  0.00  0.00    +0.000 OA
ATOM     12  N4  UNL     1      -1.728  87.115  63.721  0.00  0.00    +0.000 N 
ATOM     13  C7  UNL     1      -1.284  87.763  64.962  0.00  0.00    +0.000 C 
ATOM     14  C8  UNL     1      -4.859  86.671  61.712  0.00  0.00    +0.000 C 
ENDROOT
TORSDOF 0
ENDMDL
MODEL 4
REMARK VINA RESULT:      -3.5      2.026      4.672
REMARK  Name = .\Caffeine.pdb
REMARK  3 active torsions:
REMARK  status: ('A' for Active; 'I' for Inactive)
REMARK    1  A    between atoms: C1_1  and  N1_2
REMARK    2  A    between atoms: N3_9  and  C8_14
REMARK    3  A    between atoms: N4_12  and  C7_13
REMARK                            x       y       z     vdW  Elec       q    Type
REMARK                         _______ _______ _______ _____ _____    ______ ____
ROOT
ATOM      1  C1  UNL     1       2.522  85.904  61.408  0.00  0.00    +0.000 C 
ATOM      2  N1  UNL     1       1.083  85.662  61.377  0.00  0.00    +0.000 N 
ATOM      3  C2  UNL     1       0.336  85.325  60.297  0.00  0.00    +0.000 C 
ATOM      4  N2  UNL     1      -0.984  85.186  60.585  0.00  0.00    +0.000 NA
ATOM      5  C3  UNL     1      -1.034  85.449  61.907  0.00  0.00    +0.000 C 
ATOM      6  C4  UNL     1       0.199  85.738  62.385  0.00  0.00    +0.000 C 
ATOM      7  C5  UNL     1       0.376  86.067  63.722  0.00  0.00    +0.000 C 
ATOM      8  O1  UNL     1       1.522  86.356  64.164  0.00  0.00    +0.000 OA
ATOM      9  N3  UNL     1      -0.730  86.077  64.543  0.00  0.00    +0.000 N 
ATOM     10  C6  UNL     1      -1.985  85.807  64.023  0.00  0.00    +0.000 C 
ATOM     11  O2  UNL     1      -3.003  85.886  64.768  0.00  0.00    +0.000 OA
ATOM     12  N4  UNL     1      -2.141  85.462  62.696  0.00  0.00    +0.000 N 
ATOM     13  C7  UNL     1      -3.470  85.197  62.131  0.00  0.00    +0.000 C 
ATOM     14  C8  UNL     1      -0.588  86.458  65.958  0.00  0.00    +0.000 C 
ENDROOT
TORSDOF 0
ENDMDL
MODEL 5
REMARK VINA RESULT:      -3.4      2.358      2.700
REMARK  Name = .\Caffeine.pdb
REMARK  3 active torsions:
REMARK  status: ('A' for Active; 'I' for Inactive)
REMARK    1  A    between atoms: C1_1  and  N1_2
REMARK    2  A    between atoms: N3_9  and  C8_14
REMARK    3  A    between atoms: N4_12  and  C7_13
REMARK                            x       y       z     vdW  Elec       q    Type
REMARK                         _______ _______ _______ _____ _____    ______ ____
ROOT
ATOM      1  C1  UNL     1      -4.730  87.531  61.829  0.00  0.00    +0.000 C 
ATOM      2  N1  UNL     1      -3.457  86.835  61.990  0.00  0.00    +0.000 N 
ATOM      3  C2  UNL     1      -3.208  85.759  62.776  0.00  0.00    +0.000 C 
ATOM      4  N2  UNL     1      -1.915  85.349  62.727  0.00  0.00    +0.000 NA
ATOM      5  C3  UNL     1      -1.355  86.222  61.864  0.00  0.00    +0.000 C 
ATOM      6  C4  UNL     1      -2.272  87.114  61.422  0.00  0.00    +0.000 C 
ATOM      7  C5  UNL     1      -1.905  88.123  60.541  0.00  0.00    +0.000 C 
ATOM      8  O1  UNL     1      -2.755  88.968  60.146  0.00  0.00    +0.000 OA
ATOM      9  N3  UNL     1      -0.594  88.178  60.124  0.00  0.00    +0.000 N 
ATOM     10  C6  UNL     1       0.332  87.272  60.614  0.00  0.00    +0.000 C 
ATOM     11  O2  UNL     1       1.546  87.372  60.279  0.00  0.00    +0.000 OA
ATOM     12  N4  UNL     1      -0.054  86.263  61.472  0.00  0.00    +0.000 N 
ATOM     13  C7  UNL     1       0.925  85.311  62.015  0.00  0.00    +0.000 C 
ATOM     14  C8  UNL     1      -0.158  89.256  59.221  0.00  0.00    +0.000 C 
ENDROOT
TORSDOF 0
ENDMDL
MODEL 6
REMARK VINA RESULT:      -3.4      2.194      3.143
REMARK  Name = .\Caffeine.pdb
REMARK  3 active torsions:
REMARK  status: ('A' for Active; 'I' for Inactive)
REMARK    1  A    between atoms: C1_1  and  N1_2
REMARK    2  A    between atoms: N3_9  and  C8_14
REMARK    3  A    between atoms: N4_12  and  C7_13
REMARK                            x       y       z     vdW  Elec       q    Type
REMARK                         _______ _______ _______ _____ _____    ______ ____
ROOT
ATOM      1  C1  UNL     1      -3.047  89.638  62.802  0.00  0.00    +0.000 C 
ATOM      2  N1  UNL     1      -2.048  88.762  62.198  0.00  0.00    +0.000 N 
ATOM      3  C2  UNL     1      -0.753  89.063  61.930  0.00  0.00    +0.000 C 
ATOM      4  N2  UNL     1      -0.077  88.040  61.346  0.00  0.00    +0.000 NA
ATOM      5  C3  UNL     1      -1.012  87.072  61.260  0.00  0.00    +0.000 C 
ATOM      6  C4  UNL     1      -2.193  87.498  61.765  0.00  0.00    +0.000 C 
ATOM      7  C5  UNL     1      -3.305  86.667  61.755  0.00  0.00    +0.000 C 
ATOM      8  O1  UNL     1      -4.411  87.072  62.206  0.00  0.00    +0.000 OA
ATOM      9  N3  UNL     1      -3.167  85.402  61.230  0.00  0.00    +0.000 N 
ATOM     10  C6  UNL     1      -1.956  84.998  60.692  0.00  0.00    +0.000 C 
ATOM     11  O2  UNL     1      -1.857  83.860  60.152  0.00  0.00    +0.000 OA
ATOM     12  N4  UNL     1      -0.855  85.829  60.730  0.00  0.00    +0.000 N 
ATOM     13  C7  UNL     1       0.426  85.420  60.141  0.00  0.00    +0.000 C 
ATOM     14  C8  UNL     1      -4.333  84.505  61.166  0.00  0.00    +0.000 C 
ENDROOT
TORSDOF 0
ENDMDL
MODEL 7
REMARK VINA RESULT:      -3.4      1.631      4.359
REMARK  Name = .\Caffeine.pdb
REMARK  3 active torsions:
REMARK  status: ('A' for Active; 'I' for Inactive)
REMARK    1  A    between atoms: C1_1  and  N1_2
REMARK    2  A    between atoms: N3_9  and  C8_14
REMARK    3  A    between atoms: N4_12  and  C7_13
REMARK                            x       y       z     vdW  Elec       q    Type
REMARK                         _______ _______ _______ _____ _____    ______ ____
ROOT
ATOM      1  C1  UNL     1       1.159  87.271  65.106  0.00  0.00    +0.000 C 
ATOM      2  N1  UNL     1       1.023  86.433  63.919  0.00  0.00    +0.000 N 
ATOM      3  C2  UNL     1       1.998  85.713  63.312  0.00  0.00    +0.000 C 
ATOM      4  N2  UNL     1       1.563  85.046  62.212  0.00  0.00    +0.000 NA
ATOM      5  C3  UNL     1       0.258  85.379  62.155  0.00  0.00    +0.000 C 
ATOM      6  C4  UNL     1      -0.070  86.211  63.171  0.00  0.00    +0.000 C 
ATOM      7  C5  UNL     1      -1.364  86.701  63.291  0.00  0.00    +0.000 C 
ATOM      8  O1  UNL     1      -1.665  87.493  64.226  0.00  0.00    +0.000 OA
ATOM      9  N3  UNL     1      -2.298  86.308  62.358  0.00  0.00    +0.000 N 
ATOM     10  C6  UNL     1      -1.930  85.481  61.310  0.00  0.00    +0.000 C 
ATOM     11  O2  UNL     1      -2.777  85.180  60.421  0.00  0.00    +0.000 OA
ATOM     12  N4  UNL     1      -0.646  84.985  61.218  0.00  0.00    +0.000 N 
ATOM     13  C7  UNL     1      -0.240  84.127  60.098  0.00  0.00    +0.000 C 
ATOM     14  C8  UNL     1      -3.670  86.837  62.428  0.00  0.00    +0.000 C 
ENDROOT
TORSDOF 0
ENDMDL
MODEL 8
REMARK VINA RESULT:      -3.4      2.043      2.943
REMARK  Name = .\Caffeine.pdb
REMARK  3 active torsions:
REMARK  status: ('A' for Active; 'I' for Inactive)
REMARK    1  A    between atoms: C1_1  and  N1_2
REMARK    2  A    between atoms: N3_9  and  C8_14
REMARK    3  A    between atoms: N4_12  and  C7_13
REMARK                            x       y       z     vdW  Elec       q    Type
REMARK                         _______ _______ _______ _____ _____    ______ ____
ROOT
ATOM      1  C1  UNL     1      -2.280  86.784  65.788  0.00  0.00    +0.000 C 
ATOM      2  N1  UNL     1      -1.066  86.526  65.021  0.00  0.00    +0.000 N 
ATOM      3  C2  UNL     1       0.212  86.744  65.418  0.00  0.00    +0.000 C 
ATOM      4  N2  UNL     1       1.129  86.420  64.470  0.00  0.00    +0.000 NA
ATOM      5  C3  UNL     1       0.363  85.981  63.450  0.00  0.00    +0.000 C 
ATOM      6  C4  UNL     1      -0.949  86.045  63.773  0.00  0.00    +0.000 C 
ATOM      7  C5  UNL     1      -1.920  85.665  62.855  0.00  0.00    +0.000 C 
ATOM      8  O1  UNL     1      -3.144  85.744  63.148  0.00  0.00    +0.000 OA
ATOM      9  N3  UNL     1      -1.507  85.212  61.622  0.00  0.00    +0.000 N 
ATOM     10  C6  UNL     1      -0.159  85.184  61.304  0.00  0.00    +0.000 C 
ATOM     11  O2  UNL     1       0.206  84.831  60.147  0.00  0.00    +0.000 OA
ATOM     12  N4  UNL     1       0.793  85.545  62.235  0.00  0.00    +0.000 N 
ATOM     13  C7  UNL     1       2.223  85.542  61.901  0.00  0.00    +0.000 C 
ATOM     14  C8  UNL     1      -2.507  84.836  60.608  0.00  0.00    +0.000 C 
ENDROOT
TORSDOF 0
ENDMDL
MODEL 9
REMARK VINA RESULT:      -3.4      2.683      3.335
REMARK  Name = .\Caffeine.pdb
REMARK  3 active torsions:
REMARK  status: ('A' for Active; 'I' for Inactive)
REMARK    1  A    between atoms: C1_1  and  N1_2
REMARK    2  A    between atoms: N3_9  and  C8_14
REMARK    3  A    between atoms: N4_12  and  C7_13
REMARK                            x       y       z     vdW  Elec       q    Type
REMARK                         _______ _______ _______ _____ _____    ______ ____
ROOT
ATOM      1  C1  UNL     1      -2.943  85.357  63.240  0.00  0.00    +0.000 C 
ATOM      2  N1  UNL     1      -2.875  86.477  62.306  0.00  0.00    +0.000 N 
ATOM      3  C2  UNL     1      -3.896  87.280  61.919  0.00  0.00    +0.000 C 
ATOM      4  N2  UNL     1      -3.520  88.226  61.020  0.00  0.00    +0.000 NA
ATOM      5  C3  UNL     1      -2.203  87.982  60.860  0.00  0.00    +0.000 C 
ATOM      6  C4  UNL     1      -1.812  86.936  61.624  0.00  0.00    +0.000 C 
ATOM      7  C5  UNL     1      -0.496  86.495  61.595  0.00  0.00    +0.000 C 
ATOM      8  O1  UNL     1      -0.136  85.506  62.291  0.00  0.00    +0.000 OA
ATOM      9  N3  UNL     1       0.395  87.158  60.781  0.00  0.00    +0.000 N 
ATOM     10  C6  UNL     1      -0.036  88.207  59.985  0.00  0.00    +0.000 C 
ATOM     11  O2  UNL     1       0.773  88.766  59.191  0.00  0.00    +0.000 OA
ATOM     12  N4  UNL     1      -1.342  88.646  60.043  0.00  0.00    +0.000 N 
ATOM     13  C7  UNL     1      -1.814  89.742  59.187  0.00  0.00    +0.000 C 
ATOM     14  C8  UNL     1       1.790  86.696  60.693  0.00  0.00    +0.000 C 
ENDROOT
TORSDOF 0
ENDMDL
