MODEL 1
REMARK VINA RESULT:      -4.7      0.000      0.000
REMARK  Name = .\Caffeine.pdb
REMARK  3 active torsions:
REMARK  status: ('A' for Active; 'I' for Inactive)
REMARK    1  A    between atoms: C1_1  and  N1_2
REMARK    2  A    between atoms: N3_9  and  C8_14
REMARK    3  A    between atoms: N4_12  and  C7_13
REMARK                            x       y       z     vdW  Elec       q    Type
REMARK                         _______ _______ _______ _____ _____    ______ ____
ROOT
ATOM      1  C1  UNL     1      -1.112  96.261 118.037  0.00  0.00    +0.000 C 
ATOM      2  N1  UNL     1      -0.845  95.598 116.765  0.00  0.00    +0.000 N 
ATOM      3  C2  UNL     1       0.317  95.614 116.065  0.00  0.00    +0.000 C 
ATOM      4  N2  UNL     1       0.248  94.915 114.903  0.00  0.00    +0.000 NA
ATOM      5  C3  UNL     1      -1.018  94.453 114.903  0.00  0.00    +0.000 C 
ATOM      6  C4  UNL     1      -1.678  94.861 116.012  0.00  0.00    +0.000 C 
ATOM      7  C5  UNL     1      -3.009  94.519 116.206  0.00  0.00    +0.000 C 
ATOM      8  O1  UNL     1      -3.630  94.916 117.230  0.00  0.00    +0.000 OA
ATOM      9  N3  UNL     1      -3.629  93.747 115.249  0.00  0.00    +0.000 N 
ATOM     10  C6  UNL     1      -2.942  93.368 114.107  0.00  0.00    +0.000 C 
ATOM     11  O2  UNL     1      -3.539  92.718 113.203  0.00  0.00    +0.000 OA
ATOM     12  N4  UNL     1      -1.613  93.698 113.941  0.00  0.00    +0.000 N 
ATOM     13  C7  UNL     1      -0.883  93.320 112.724  0.00  0.00    +0.000 C 
ATOM     14  C8  UNL     1      -5.051  93.397 115.399  0.00  0.00    +0.000 C 
ENDROOT
TORSDOF 0
ENDMDL
MODEL 2
REMARK VINA RESULT:      -4.7      1.728      4.315
REMARK  Name = .\Caffeine.pdb
REMARK  3 active torsions:
REMARK  status: ('A' for Active; 'I' for Inactive)
REMARK    1  A    between atoms: C1_1  and  N1_2
REMARK    2  A    between atoms: N3_9  and  C8_14
REMARK    3  A    between atoms: N4_12  and  C7_13
REMARK                            x       y       z     vdW  Elec       q    Type
REMARK                         _______ _______ _______ _____ _____    ______ ____
ROOT
ATOM      1  C1  UNL     1      -0.429  93.413 112.569  0.00  0.00    +0.000 C 
ATOM      2  N1  UNL     1      -1.585  93.399 113.459  0.00  0.00    +0.000 N 
ATOM      3  C2  UNL     1      -2.758  92.748 113.263  0.00  0.00    +0.000 C 
ATOM      4  N2  UNL     1      -3.651  92.944 114.267  0.00  0.00    +0.000 NA
ATOM      5  C3  UNL     1      -2.980  93.753 115.113  0.00  0.00    +0.000 C 
ATOM      6  C4  UNL     1      -1.746  94.030 114.634  0.00  0.00    +0.000 C 
ATOM      7  C5  UNL     1      -0.890  94.869 115.335  0.00  0.00    +0.000 C 
ATOM      8  O1  UNL     1       0.253  95.146 114.878  0.00  0.00    +0.000 OA
ATOM      9  N3  UNL     1      -1.328  95.395 116.530  0.00  0.00    +0.000 N 
ATOM     10  C6  UNL     1      -2.608  95.120 116.985  0.00  0.00    +0.000 C 
ATOM     11  O2  UNL     1      -3.026  95.661 118.048  0.00  0.00    +0.000 OA
ATOM     12  N4  UNL     1      -3.437  94.267 116.286  0.00  0.00    +0.000 N 
ATOM     13  C7  UNL     1      -4.803  93.988 116.748  0.00  0.00    +0.000 C 
ATOM     14  C8  UNL     1      -0.465  96.320 117.284  0.00  0.00    +0.000 C 
ENDROOT
TORSDOF 0
ENDMDL
MODEL 3
REMARK VINA RESULT:      -4.7      1.492      2.997
REMARK  Name = .\Caffeine.pdb
REMARK  3 active torsions:
REMARK  status: ('A' for Active; 'I' for Inactive)
REMARK    1  A    between atoms: C1_1  and  N1_2
REMARK    2  A    between atoms: N3_9  and  C8_14
REMARK    3  A    between atoms: N4_12  and  C7_13
REMARK                            x       y       z     vdW  Elec       q    Type
REMARK                         _______ _______ _______ _____ _____    ______ ____
ROOT
ATOM      1  C1  UNL     1       0.015  96.017 117.470  0.00  0.00    +0.000 C 
ATOM      2  N1  UNL     1      -1.297  95.467 117.142  0.00  0.00    +0.000 N 
ATOM      3  C2  UNL     1      -2.408  95.490 117.918  0.00  0.00    +0.000 C 
ATOM      4  N2  UNL     1      -3.474  94.877 117.342  0.00  0.00    +0.000 NA
ATOM      5  C3  UNL     1      -2.980  94.466 116.157  0.00  0.00    +0.000 C 
ATOM      6  C4  UNL     1      -1.678  94.812 116.033  0.00  0.00    +0.000 C 
ATOM      7  C5  UNL     1      -0.961  94.464 114.896  0.00  0.00    +0.000 C 
ATOM      8  O1  UNL     1       0.258  94.769 114.789  0.00  0.00    +0.000 OA
ATOM      9  N3  UNL     1      -1.615  93.771 113.901  0.00  0.00    +0.000 N 
ATOM     10  C6  UNL     1      -2.940  93.401 114.064  0.00  0.00    +0.000 C 
ATOM     11  O2  UNL     1      -3.511  92.707 113.176  0.00  0.00    +0.000 OA
ATOM     12  N4  UNL     1      -3.643  93.774 115.191  0.00  0.00    +0.000 N 
ATOM     13  C7  UNL     1      -5.041  93.367 115.384  0.00  0.00    +0.000 C 
ATOM     14  C8  UNL     1      -0.879  93.350 112.698  0.00  0.00    +0.000 C 
ENDROOT
TORSDOF 0
ENDMDL
MODEL 4
REMARK VINA RESULT:      -4.5      0.900      3.404
REMARK  Name = .\Caffeine.pdb
REMARK  3 active torsions:
REMARK  status: ('A' for Active; 'I' for Inactive)
REMARK    1  A    between atoms: C1_1  and  N1_2
REMARK    2  A    between atoms: N3_9  and  C8_14
REMARK    3  A    between atoms: N4_12  and  C7_13
REMARK                            x       y       z     vdW  Elec       q    Type
REMARK                         _______ _______ _______ _____ _____    ______ ____
ROOT
ATOM      1  C1  UNL     1      -0.518  92.899 112.249  0.00  0.00    +0.000 C 
ATOM      2  N1  UNL     1      -0.467  93.506 113.576  0.00  0.00    +0.000 N 
ATOM      3  C2  UNL     1       0.633  93.963 114.222  0.00  0.00    +0.000 C 
ATOM      4  N2  UNL     1       0.360  94.459 115.456  0.00  0.00    +0.000 NA
ATOM      5  C3  UNL     1      -0.975  94.294 115.558  0.00  0.00    +0.000 C 
ATOM      6  C4  UNL     1      -1.474  93.722 114.438  0.00  0.00    +0.000 C 
ATOM      7  C5  UNL     1      -2.829  93.436 114.337  0.00  0.00    +0.000 C 
ATOM      8  O1  UNL     1      -3.292  92.884 113.301  0.00  0.00    +0.000 OA
ATOM      9  N3  UNL     1      -3.644  93.762 115.398  0.00  0.00    +0.000 N 
ATOM     10  C6  UNL     1      -3.105  94.319 116.546  0.00  0.00    +0.000 C 
ATOM     11  O2  UNL     1      -3.849  94.552 117.540  0.00  0.00    +0.000 OA
ATOM     12  N4  UNL     1      -1.759  94.616 116.621  0.00  0.00    +0.000 N 
ATOM     13  C7  UNL     1      -1.174  95.185 117.842  0.00  0.00    +0.000 C 
ATOM     14  C8  UNL     1      -5.080  93.440 115.345  0.00  0.00    +0.000 C 
ENDROOT
TORSDOF 0
ENDMDL
MODEL 5
REMARK VINA RESULT:      -4.5      1.907      4.085
REMARK  Name = .\Caffeine.pdb
REMARK  3 active torsions:
REMARK  status: ('A' for Active; 'I' for Inactive)
REMARK    1  A    between atoms: C1_1  and  N1_2
REMARK    2  A    between atoms: N3_9  and  C8_14
REMARK    3  A    between atoms: N4_12  and  C7_13
REMARK                            x       y       z     vdW  Elec       q    Type
REMARK                         _______ _______ _______ _____ _____    ______ ____
ROOT
ATOM      1  C1  UNL     1       0.804  91.941 113.404  0.00  0.00    +0.000 C 
ATOM      2  N1  UNL     1      -0.611  92.243 113.593  0.00  0.00    +0.000 N 
ATOM      3  C2  UNL     1      -1.623  91.987 112.728  0.00  0.00    +0.000 C 
ATOM      4  N2  UNL     1      -2.833  92.405 113.182  0.00  0.00    +0.000 NA
ATOM      5  C3  UNL     1      -2.535  92.937 114.385  0.00  0.00    +0.000 C 
ATOM      6  C4  UNL     1      -1.208  92.846 114.635  0.00  0.00    +0.000 C 
ATOM      7  C5  UNL     1      -0.676  93.357 115.811  0.00  0.00    +0.000 C 
ATOM      8  O1  UNL     1       0.564  93.291 116.035  0.00  0.00    +0.000 OA
ATOM      9  N3  UNL     1      -1.535  93.942 116.714  0.00  0.00    +0.000 N 
ATOM     10  C6  UNL     1      -2.885  94.051 116.422  0.00  0.00    +0.000 C 
ATOM     11  O2  UNL     1      -3.655  94.650 117.225  0.00  0.00    +0.000 OA
ATOM     12  N4  UNL     1      -3.400  93.518 115.258  0.00  0.00    +0.000 N 
ATOM     13  C7  UNL     1      -4.825  93.649 114.929  0.00  0.00    +0.000 C 
ATOM     14  C8  UNL     1      -1.004  94.530 117.955  0.00  0.00    +0.000 C 
ENDROOT
TORSDOF 0
ENDMDL
MODEL 6
REMARK VINA RESULT:      -4.4      1.653      3.776
REMARK  Name = .\Caffeine.pdb
REMARK  3 active torsions:
REMARK  status: ('A' for Active; 'I' for Inactive)
REMARK    1  A    between atoms: C1_1  and  N1_2
REMARK    2  A    between atoms: N3_9  and  C8_14
REMARK    3  A    between atoms: N4_12  and  C7_13
REMARK                            x       y       z     vdW  Elec       q    Type
REMARK                         _______ _______ _______ _____ _____    ______ ____
ROOT
ATOM      1  C1  UNL     1      -5.076  93.378 115.322  0.00  0.00    +0.000 C 
ATOM      2  N1  UNL     1      -3.758  93.864 115.717  0.00  0.00    +0.000 N 
ATOM      3  C2  UNL     1      -3.446  94.554 116.842  0.00  0.00    +0.000 C 
ATOM      4  N2  UNL     1      -2.131  94.884 116.918  0.00  0.00    +0.000 NA
ATOM      5  C3  UNL     1      -1.624  94.364 115.781  0.00  0.00    +0.000 C 
ATOM      6  C4  UNL     1      -2.592  93.756 115.058  0.00  0.00    +0.000 C 
ATOM      7  C5  UNL     1      -2.296  93.173 113.833  0.00  0.00    +0.000 C 
ATOM      8  O1  UNL     1      -3.203  92.624 113.149  0.00  0.00    +0.000 OA
ATOM      9  N3  UNL     1      -0.994  93.220 113.388  0.00  0.00    +0.000 N 
ATOM     10  C6  UNL     1      -0.026  93.875 114.132  0.00  0.00    +0.000 C 
ATOM     11  O2  UNL     1       1.151  93.973 113.683  0.00  0.00    +0.000 OA
ATOM     12  N4  UNL     1      -0.334  94.431 115.357  0.00  0.00    +0.000 N 
ATOM     13  C7  UNL     1       0.680  95.147 116.142  0.00  0.00    +0.000 C 
ATOM     14  C8  UNL     1      -0.647  92.647 112.077  0.00  0.00    +0.000 C 
ENDROOT
TORSDOF 0
ENDMDL
MODEL 7
REMARK VINA RESULT:      -4.3      1.631      3.474
REMARK  Name = .\Caffeine.pdb
REMARK  3 active torsions:
REMARK  status: ('A' for Active; 'I' for Inactive)
REMARK    1  A    between atoms: C1_1  and  N1_2
REMARK    2  A    between atoms: N3_9  and  C8_14
REMARK    3  A    between atoms: N4_12  and  C7_13
REMARK                            x       y       z     vdW  Elec       q    Type
REMARK                         _______ _______ _______ _____ _____    ______ ____
ROOT
ATOM      1  C1  UNL     1      -5.078  93.793 116.742  0.00  0.00    +0.000 C 
ATOM      2  N1  UNL     1      -3.720  94.308 116.882  0.00  0.00    +0.000 N 
ATOM      3  C2  UNL     1      -3.224  95.027 117.919  0.00  0.00    +0.000 C 
ATOM      4  N2  UNL     1      -1.924  95.380 117.750  0.00  0.00    +0.000 NA
ATOM      5  C3  UNL     1      -1.620  94.844 116.550  0.00  0.00    +0.000 C 
ATOM      6  C4  UNL     1      -2.691  94.204 116.026  0.00  0.00    +0.000 C 
ATOM      7  C5  UNL     1      -2.609  93.599 114.779  0.00  0.00    +0.000 C 
ATOM      8  O1  UNL     1      -3.614  93.021 114.280  0.00  0.00    +0.000 OA
ATOM      9  N3  UNL     1      -1.410  93.658 114.104  0.00  0.00    +0.000 N 
ATOM     10  C6  UNL     1      -0.337  94.344 114.649  0.00  0.00    +0.000 C 
ATOM     11  O2  UNL     1       0.738  94.450 113.992  0.00  0.00    +0.000 OA
ATOM     12  N4  UNL     1      -0.429  94.921 115.898  0.00  0.00    +0.000 N 
ATOM     13  C7  UNL     1       0.695  95.671 116.474  0.00  0.00    +0.000 C 
ATOM     14  C8  UNL     1      -1.295  93.061 112.763  0.00  0.00    +0.000 C 
ENDROOT
TORSDOF 0
ENDMDL
MODEL 8
REMARK VINA RESULT:      -4.3      1.891      3.561
REMARK  Name = .\Caffeine.pdb
REMARK  3 active torsions:
REMARK  status: ('A' for Active; 'I' for Inactive)
REMARK    1  A    between atoms: C1_1  and  N1_2
REMARK    2  A    between atoms: N3_9  and  C8_14
REMARK    3  A    between atoms: N4_12  and  C7_13
REMARK                            x       y       z     vdW  Elec       q    Type
REMARK                         _______ _______ _______ _____ _____    ______ ____
ROOT
ATOM      1  C1  UNL     1      -5.080  93.795 117.222  0.00  0.00    +0.000 C 
ATOM      2  N1  UNL     1      -4.261  93.664 116.021  0.00  0.00    +0.000 N 
ATOM      3  C2  UNL     1      -4.694  93.413 114.761  0.00  0.00    +0.000 C 
ATOM      4  N2  UNL     1      -3.685  93.329 113.856  0.00  0.00    +0.000 NA
ATOM      5  C3  UNL     1      -2.587  93.543 114.609  0.00  0.00    +0.000 C 
ATOM      6  C4  UNL     1      -2.925  93.740 115.905  0.00  0.00    +0.000 C 
ATOM      7  C5  UNL     1      -1.944  93.954 116.864  0.00  0.00    +0.000 C 
ATOM      8  O1  UNL     1      -2.257  94.117 118.075  0.00  0.00    +0.000 OA
ATOM      9  N3  UNL     1      -0.629  93.971 116.457  0.00  0.00    +0.000 N 
ATOM     10  C6  UNL     1      -0.306  93.736 115.130  0.00  0.00    +0.000 C 
ATOM     11  O2  UNL     1       0.907  93.687 114.779  0.00  0.00    +0.000 OA
ATOM     12  N4  UNL     1      -1.295  93.547 114.187  0.00  0.00    +0.000 N 
ATOM     13  C7  UNL     1      -0.962  93.274 112.783  0.00  0.00    +0.000 C 
ATOM     14  C8  UNL     1       0.443  94.156 117.450  0.00  0.00    +0.000 C 
ENDROOT
TORSDOF 0
ENDMDL
MODEL 9
REMARK VINA RESULT:      -4.2      1.315      3.780
REMARK  Name = .\Caffeine.pdb
REMARK  3 active torsions:
REMARK  status: ('A' for Active; 'I' for Inactive)
REMARK    1  A    between atoms: C1_1  and  N1_2
REMARK    2  A    between atoms: N3_9  and  C8_14
REMARK    3  A    between atoms: N4_12  and  C7_13
REMARK                            x       y       z     vdW  Elec       q    Type
REMARK                         _______ _______ _______ _____ _____    ______ ____
ROOT
ATOM      1  C1  UNL     1      -0.397  91.664 111.549  0.00  0.00    +0.000 C 
ATOM      2  N1  UNL     1      -0.095  92.657 112.576  0.00  0.00    +0.000 N 
ATOM      3  C2  UNL     1       1.114  93.209 112.847  0.00  0.00    +0.000 C 
ATOM      4  N2  UNL     1       1.078  94.092 113.877  0.00  0.00    +0.000 NA
ATOM      5  C3  UNL     1      -0.220  94.074 114.244  0.00  0.00    +0.000 C 
ATOM      6  C4  UNL     1      -0.925  93.215 113.472  0.00  0.00    +0.000 C 
ATOM      7  C5  UNL     1      -2.281  93.019 113.694  0.00  0.00    +0.000 C 
ATOM      8  O1  UNL     1      -2.935  92.203 112.988  0.00  0.00    +0.000 OA
ATOM      9  N3  UNL     1      -2.884  93.730 114.708  0.00  0.00    +0.000 N 
ATOM     10  C6  UNL     1      -2.135  94.580 115.504  0.00  0.00    +0.000 C 
ATOM     11  O2  UNL     1      -2.683  95.176 116.474  0.00  0.00    +0.000 OA
ATOM     12  N4  UNL     1      -0.793  94.779 115.256  0.00  0.00    +0.000 N 
ATOM     13  C7  UNL     1       0.015  95.661 116.109  0.00  0.00    +0.000 C 
ATOM     14  C8  UNL     1      -4.312  93.521 114.999  0.00  0.00    +0.000 C 
ENDROOT
TORSDOF 0
ENDMDL
