MODEL 1
REMARK VINA RESULT:      -3.5      0.000      0.000
REMARK  Name = .\Caffeine.pdb
REMARK  3 active torsions:
REMARK  status: ('A' for Active; 'I' for Inactive)
REMARK    1  A    between atoms: C1_1  and  N1_2
REMARK    2  A    between atoms: N3_9  and  C8_14
REMARK    3  A    between atoms: N4_12  and  C7_13
REMARK                            x       y       z     vdW  Elec       q    Type
REMARK                         _______ _______ _______ _____ _____    ______ ____
ROOT
ATOM      1  C1  UNL     1      -6.442  64.580  14.093  0.00  0.00    +0.000 C 
ATOM      2  N1  UNL     1      -5.940  65.470  15.134  0.00  0.00    +0.000 N 
ATOM      3  C2  UNL     1      -6.628  65.952  16.198  0.00  0.00    +0.000 C 
ATOM      4  N2  UNL     1      -5.888  66.777  16.983  0.00  0.00    +0.000 NA
ATOM      5  C3  UNL     1      -4.691  66.790  16.362  0.00  0.00    +0.000 C 
ATOM      6  C4  UNL     1      -4.717  66.014  15.254  0.00  0.00    +0.000 C 
ATOM      7  C5  UNL     1      -3.594  65.903  14.445  0.00  0.00    +0.000 C 
ATOM      8  O1  UNL     1      -3.624  65.196  13.400  0.00  0.00    +0.000 OA
ATOM      9  N3  UNL     1      -2.459  66.592  14.809  0.00  0.00    +0.000 N 
ATOM     10  C6  UNL     1      -2.466  67.405  15.931  0.00  0.00    +0.000 C 
ATOM     11  O2  UNL     1      -1.442  68.086  16.220  0.00  0.00    +0.000 OA
ATOM     12  N4  UNL     1      -3.584  67.486  16.736  0.00  0.00    +0.000 N 
ATOM     13  C7  UNL     1      -3.610  68.362  17.914  0.00  0.00    +0.000 C 
ATOM     14  C8  UNL     1      -1.260  66.532  13.956  0.00  0.00    +0.000 C 
ENDROOT
TORSDOF 0
ENDMDL
MODEL 2
REMARK VINA RESULT:      -3.5      2.215      4.664
REMARK  Name = .\Caffeine.pdb
REMARK  3 active torsions:
REMARK  status: ('A' for Active; 'I' for Inactive)
REMARK    1  A    between atoms: C1_1  and  N1_2
REMARK    2  A    between atoms: N3_9  and  C8_14
REMARK    3  A    between atoms: N4_12  and  C7_13
REMARK                            x       y       z     vdW  Elec       q    Type
REMARK                         _______ _______ _______ _____ _____    ______ ____
ROOT
ATOM      1  C1  UNL     1      -2.180  66.721  17.699  0.00  0.00    +0.000 C 
ATOM      2  N1  UNL     1      -3.108  66.013  16.823  0.00  0.00    +0.000 N 
ATOM      3  C2  UNL     1      -2.866  64.877  16.124  0.00  0.00    +0.000 C 
ATOM      4  N2  UNL     1      -3.927  64.471  15.380  0.00  0.00    +0.000 NA
ATOM      5  C3  UNL     1      -4.858  65.410  15.647  0.00  0.00    +0.000 C 
ATOM      6  C4  UNL     1      -4.373  66.336  16.506  0.00  0.00    +0.000 C 
ATOM      7  C5  UNL     1      -5.157  67.413  16.898  0.00  0.00    +0.000 C 
ATOM      8  O1  UNL     1      -4.699  68.287  17.683  0.00  0.00    +0.000 OA
ATOM      9  N3  UNL     1      -6.438  67.500  16.399  0.00  0.00    +0.000 N 
ATOM     10  C6  UNL     1      -6.901  66.556  15.498  0.00  0.00    +0.000 C 
ATOM     11  O2  UNL     1      -8.053  66.682  14.993  0.00  0.00    +0.000 OA
ATOM     12  N4  UNL     1      -6.116  65.481  15.135  0.00  0.00    +0.000 N 
ATOM     13  C7  UNL     1      -6.589  64.488  14.163  0.00  0.00    +0.000 C 
ATOM     14  C8  UNL     1      -7.288  68.647  16.761  0.00  0.00    +0.000 C 
ENDROOT
TORSDOF 0
ENDMDL
MODEL 3
REMARK VINA RESULT:      -3.4      2.043      3.901
REMARK  Name = .\Caffeine.pdb
REMARK  3 active torsions:
REMARK  status: ('A' for Active; 'I' for Inactive)
REMARK    1  A    between atoms: C1_1  and  N1_2
REMARK    2  A    between atoms: N3_9  and  C8_14
REMARK    3  A    between atoms: N4_12  and  C7_13
REMARK                            x       y       z     vdW  Elec       q    Type
REMARK                         _______ _______ _______ _____ _____    ______ ____
ROOT
ATOM      1  C1  UNL     1      -2.049  65.365  16.961  0.00  0.00    +0.000 C 
ATOM      2  N1  UNL     1      -3.178  66.288  17.027  0.00  0.00    +0.000 N 
ATOM      3  C2  UNL     1      -3.250  67.439  17.740  0.00  0.00    +0.000 C 
ATOM      4  N2  UNL     1      -4.444  68.072  17.611  0.00  0.00    +0.000 NA
ATOM      5  C3  UNL     1      -5.126  67.262  16.776  0.00  0.00    +0.000 C 
ATOM      6  C4  UNL     1      -4.375  66.192  16.426  0.00  0.00    +0.000 C 
ATOM      7  C5  UNL     1      -4.891  65.212  15.589  0.00  0.00    +0.000 C 
ATOM      8  O1  UNL     1      -4.199  64.204  15.279  0.00  0.00    +0.000 OA
ATOM      9  N3  UNL     1      -6.176  65.368  15.119  0.00  0.00    +0.000 N 
ATOM     10  C6  UNL     1      -6.936  66.457  15.516  0.00  0.00    +0.000 C 
ATOM     11  O2  UNL     1      -8.137  66.556  15.135  0.00  0.00    +0.000 OA
ATOM     12  N4  UNL     1      -6.400  67.432  16.331  0.00  0.00    +0.000 N 
ATOM     13  C7  UNL     1      -7.204  68.577  16.776  0.00  0.00    +0.000 C 
ATOM     14  C8  UNL     1      -6.773  64.332  14.261  0.00  0.00    +0.000 C 
ENDROOT
TORSDOF 0
ENDMDL
MODEL 4
REMARK VINA RESULT:      -3.4      2.206      3.123
REMARK  Name = .\Caffeine.pdb
REMARK  3 active torsions:
REMARK  status: ('A' for Active; 'I' for Inactive)
REMARK    1  A    between atoms: C1_1  and  N1_2
REMARK    2  A    between atoms: N3_9  and  C8_14
REMARK    3  A    between atoms: N4_12  and  C7_13
REMARK                            x       y       z     vdW  Elec       q    Type
REMARK                         _______ _______ _______ _____ _____    ______ ____
ROOT
ATOM      1  C1  UNL     1      -7.711  66.212  15.329  0.00  0.00    +0.000 C 
ATOM      2  N1  UNL     1      -6.348  65.737  15.549  0.00  0.00    +0.000 N 
ATOM      3  C2  UNL     1      -5.811  64.570  15.114  0.00  0.00    +0.000 C 
ATOM      4  N2  UNL     1      -4.519  64.403  15.497  0.00  0.00    +0.000 NA
ATOM      5  C3  UNL     1      -4.263  65.529  16.194  0.00  0.00    +0.000 C 
ATOM      6  C4  UNL     1      -5.354  66.328  16.232  0.00  0.00    +0.000 C 
ATOM      7  C5  UNL     1      -5.322  67.532  16.922  0.00  0.00    +0.000 C 
ATOM      8  O1  UNL     1      -6.345  68.268  16.975  0.00  0.00    +0.000 OA
ATOM      9  N3  UNL     1      -4.151  67.890  17.552  0.00  0.00    +0.000 N 
ATOM     10  C6  UNL     1      -3.057  67.041  17.525  0.00  0.00    +0.000 C 
ATOM     11  O2  UNL     1      -2.009  67.346  18.163  0.00  0.00    +0.000 OA
ATOM     12  N4  UNL     1      -3.099  65.858  16.816  0.00  0.00    +0.000 N 
ATOM     13  C7  UNL     1      -1.953  64.940  16.801  0.00  0.00    +0.000 C 
ATOM     14  C8  UNL     1      -4.089  69.141  18.327  0.00  0.00    +0.000 C 
ENDROOT
TORSDOF 0
ENDMDL
MODEL 5
REMARK VINA RESULT:      -3.4      2.011      3.883
REMARK  Name = .\Caffeine.pdb
REMARK  3 active torsions:
REMARK  status: ('A' for Active; 'I' for Inactive)
REMARK    1  A    between atoms: C1_1  and  N1_2
REMARK    2  A    between atoms: N3_9  and  C8_14
REMARK    3  A    between atoms: N4_12  and  C7_13
REMARK                            x       y       z     vdW  Elec       q    Type
REMARK                         _______ _______ _______ _____ _____    ______ ____
ROOT
ATOM      1  C1  UNL     1      -7.056  69.616  17.584  0.00  0.00    +0.000 C 
ATOM      2  N1  UNL     1      -7.151  68.398  16.785  0.00  0.00    +0.000 N 
ATOM      3  C2  UNL     1      -8.243  67.936  16.128  0.00  0.00    +0.000 C 
ATOM      4  N2  UNL     1      -8.021  66.761  15.485  0.00  0.00    +0.000 NA
ATOM      5  C3  UNL     1      -6.728  66.503  15.768  0.00  0.00    +0.000 C 
ATOM      6  C4  UNL     1      -6.203  67.476  16.547  0.00  0.00    +0.000 C 
ATOM      7  C5  UNL     1      -4.887  67.399  16.981  0.00  0.00    +0.000 C 
ATOM      8  O1  UNL     1      -4.403  68.296  17.724  0.00  0.00    +0.000 OA
ATOM      9  N3  UNL     1      -4.134  66.316  16.585  0.00  0.00    +0.000 N 
ATOM     10  C6  UNL     1      -4.702  65.316  15.812  0.00  0.00    +0.000 C 
ATOM     11  O2  UNL     1      -4.024  64.294  15.511  0.00  0.00    +0.000 OA
ATOM     12  N4  UNL     1      -6.006  65.420  15.373  0.00  0.00    +0.000 N 
ATOM     13  C7  UNL     1      -6.625  64.355  14.572  0.00  0.00    +0.000 C 
ATOM     14  C8  UNL     1      -2.746  66.178  17.056  0.00  0.00    +0.000 C 
ENDROOT
TORSDOF 0
ENDMDL
MODEL 6
REMARK VINA RESULT:      -3.3      2.212      4.540
REMARK  Name = .\Caffeine.pdb
REMARK  3 active torsions:
REMARK  status: ('A' for Active; 'I' for Inactive)
REMARK    1  A    between atoms: C1_1  and  N1_2
REMARK    2  A    between atoms: N3_9  and  C8_14
REMARK    3  A    between atoms: N4_12  and  C7_13
REMARK                            x       y       z     vdW  Elec       q    Type
REMARK                         _______ _______ _______ _____ _____    ______ ____
ROOT
ATOM      1  C1  UNL     1       0.678  65.749  16.040  0.00  0.00    +0.000 C 
ATOM      2  N1  UNL     1      -0.661  65.197  15.866  0.00  0.00    +0.000 N 
ATOM      3  C2  UNL     1      -0.993  64.045  15.233  0.00  0.00    +0.000 C 
ATOM      4  N2  UNL     1      -2.330  63.809  15.220  0.00  0.00    +0.000 NA
ATOM      5  C3  UNL     1      -2.830  64.872  15.882  0.00  0.00    +0.000 C 
ATOM      6  C4  UNL     1      -1.837  65.706  16.268  0.00  0.00    +0.000 C 
ATOM      7  C5  UNL     1      -2.129  66.883  16.946  0.00  0.00    +0.000 C 
ATOM      8  O1  UNL     1      -1.206  67.672  17.287  0.00  0.00    +0.000 OA
ATOM      9  N3  UNL     1      -3.449  67.164  17.221  0.00  0.00    +0.000 N 
ATOM     10  C6  UNL     1      -4.449  66.309  16.789  0.00  0.00    +0.000 C 
ATOM     11  O2  UNL     1      -5.661  66.609  16.987  0.00  0.00    +0.000 OA
ATOM     12  N4  UNL     1      -4.140  65.134  16.136  0.00  0.00    +0.000 N 
ATOM     13  C7  UNL     1      -5.194  64.232  15.654  0.00  0.00    +0.000 C 
ATOM     14  C8  UNL     1      -3.802  68.420  17.903  0.00  0.00    +0.000 C 
ENDROOT
TORSDOF 0
ENDMDL
MODEL 7
REMARK VINA RESULT:      -3.3      2.138      4.507
REMARK  Name = .\Caffeine.pdb
REMARK  3 active torsions:
REMARK  status: ('A' for Active; 'I' for Inactive)
REMARK    1  A    between atoms: C1_1  and  N1_2
REMARK    2  A    between atoms: N3_9  and  C8_14
REMARK    3  A    between atoms: N4_12  and  C7_13
REMARK                            x       y       z     vdW  Elec       q    Type
REMARK                         _______ _______ _______ _____ _____    ______ ____
ROOT
ATOM      1  C1  UNL     1      -3.913  69.309  18.771  0.00  0.00    +0.000 C 
ATOM      2  N1  UNL     1      -3.497  68.110  18.051  0.00  0.00    +0.000 N 
ATOM      3  C2  UNL     1      -2.277  67.518  18.086  0.00  0.00    +0.000 C 
ATOM      4  N2  UNL     1      -2.192  66.422  17.289  0.00  0.00    +0.000 NA
ATOM      5  C3  UNL     1      -3.425  66.348  16.748  0.00  0.00    +0.000 C 
ATOM      6  C4  UNL     1      -4.208  67.355  17.197  0.00  0.00    +0.000 C 
ATOM      7  C5  UNL     1      -5.515  67.486  16.747  0.00  0.00    +0.000 C 
ATOM      8  O1  UNL     1      -6.239  68.438  17.149  0.00  0.00    +0.000 OA
ATOM      9  N3  UNL     1      -5.990  66.558  15.847  0.00  0.00    +0.000 N 
ATOM     10  C6  UNL     1      -5.159  65.553  15.379  0.00  0.00    +0.000 C 
ATOM     11  O2  UNL     1      -5.582  64.747  14.502  0.00  0.00    +0.000 OA
ATOM     12  N4  UNL     1      -3.870  65.425  15.853  0.00  0.00    +0.000 N 
ATOM     13  C7  UNL     1      -2.975  64.378  15.345  0.00  0.00    +0.000 C 
ATOM     14  C8  UNL     1      -7.358  66.685  15.316  0.00  0.00    +0.000 C 
ENDROOT
TORSDOF 0
ENDMDL
MODEL 8
REMARK VINA RESULT:      -3.3      1.985      3.253
REMARK  Name = .\Caffeine.pdb
REMARK  3 active torsions:
REMARK  status: ('A' for Active; 'I' for Inactive)
REMARK    1  A    between atoms: C1_1  and  N1_2
REMARK    2  A    between atoms: N3_9  and  C8_14
REMARK    3  A    between atoms: N4_12  and  C7_13
REMARK                            x       y       z     vdW  Elec       q    Type
REMARK                         _______ _______ _______ _____ _____    ______ ____
ROOT
ATOM      1  C1  UNL     1      -7.194  67.913  16.208  0.00  0.00    +0.000 C 
ATOM      2  N1  UNL     1      -6.183  66.928  15.837  0.00  0.00    +0.000 N 
ATOM      3  C2  UNL     1      -6.316  65.921  14.938  0.00  0.00    +0.000 C 
ATOM      4  N2  UNL     1      -5.200  65.157  14.824  0.00  0.00    +0.000 NA
ATOM      5  C3  UNL     1      -4.349  65.734  15.696  0.00  0.00    +0.000 C 
ATOM      6  C4  UNL     1      -4.932  66.792  16.307  0.00  0.00    +0.000 C 
ATOM      7  C5  UNL     1      -4.242  67.520  17.267  0.00  0.00    +0.000 C 
ATOM      8  O1  UNL     1      -4.793  68.493  17.852  0.00  0.00    +0.000 OA
ATOM      9  N3  UNL     1      -2.951  67.144  17.566  0.00  0.00    +0.000 N 
ATOM     10  C6  UNL     1      -2.387  66.039  16.949  0.00  0.00    +0.000 C 
ATOM     11  O2  UNL     1      -1.227  65.661  17.279  0.00  0.00    +0.000 OA
ATOM     12  N4  UNL     1      -3.079  65.340  15.982  0.00  0.00    +0.000 N 
ATOM     13  C7  UNL     1      -2.498  64.154  15.340  0.00  0.00    +0.000 C 
ATOM     14  C8  UNL     1      -2.200  67.866  18.606  0.00  0.00    +0.000 C 
ENDROOT
TORSDOF 0
ENDMDL
MODEL 9
REMARK VINA RESULT:      -3.2      1.593      4.352
REMARK  Name = .\Caffeine.pdb
REMARK  3 active torsions:
REMARK  status: ('A' for Active; 'I' for Inactive)
REMARK    1  A    between atoms: C1_1  and  N1_2
REMARK    2  A    between atoms: N3_9  and  C8_14
REMARK    3  A    between atoms: N4_12  and  C7_13
REMARK                            x       y       z     vdW  Elec       q    Type
REMARK                         _______ _______ _______ _____ _____    ______ ____
ROOT
ATOM      1  C1  UNL     1      -3.450  68.872  18.698  0.00  0.00    +0.000 C 
ATOM      2  N1  UNL     1      -2.716  68.222  17.617  0.00  0.00    +0.000 N 
ATOM      3  C2  UNL     1      -1.385  68.301  17.372  0.00  0.00    +0.000 C 
ATOM      4  N2  UNL     1      -1.001  67.596  16.276  0.00  0.00    +0.000 NA
ATOM      5  C3  UNL     1      -2.161  67.063  15.840  0.00  0.00    +0.000 C 
ATOM      6  C4  UNL     1      -3.190  67.436  16.636  0.00  0.00    +0.000 C 
ATOM      7  C5  UNL     1      -4.484  67.021  16.356  0.00  0.00    +0.000 C 
ATOM      8  O1  UNL     1      -5.447  67.385  17.085  0.00  0.00    +0.000 OA
ATOM      9  N3  UNL     1      -4.685  66.212  15.259  0.00  0.00    +0.000 N 
ATOM     10  C6  UNL     1      -3.620  65.869  14.442  0.00  0.00    +0.000 C 
ATOM     11  O2  UNL     1      -3.824  65.184  13.400  0.00  0.00    +0.000 OA
ATOM     12  N4  UNL     1      -2.337  66.273  14.748  0.00  0.00    +0.000 N 
ATOM     13  C7  UNL     1      -1.206  65.933  13.876  0.00  0.00    +0.000 C 
ATOM     14  C8  UNL     1      -6.048  65.783  14.905  0.00  0.00    +0.000 C 
ENDROOT
TORSDOF 0
ENDMDL
