MODEL 1
REMARK VINA RESULT:      -3.8      0.000      0.000
REMARK  Name = .\Caffeine.pdb
REMARK  3 active torsions:
REMARK  status: ('A' for Active; 'I' for Inactive)
REMARK    1  A    between atoms: C1_1  and  N1_2
REMARK    2  A    between atoms: N3_9  and  C8_14
REMARK    3  A    between atoms: N4_12  and  C7_13
REMARK                            x       y       z     vdW  Elec       q    Type
REMARK                         _______ _______ _______ _____ _____    ______ ____
ROOT
ATOM      1  C1  UNL     1      -7.951  99.304 127.592  0.00  0.00    +0.000 C 
ATOM      2  N1  UNL     1      -8.413  98.021 127.071  0.00  0.00    +0.000 N 
ATOM      3  C2  UNL     1      -8.732  96.916 127.789  0.00  0.00    +0.000 C 
ATOM      4  N2  UNL     1      -9.113  95.868 127.014  0.00  0.00    +0.000 NA
ATOM      5  C3  UNL     1      -9.020  96.368 125.765  0.00  0.00    +0.000 C 
ATOM      6  C4  UNL     1      -8.599  97.654 125.793  0.00  0.00    +0.000 C 
ATOM      7  C5  UNL     1      -8.409  98.359 124.612  0.00  0.00    +0.000 C 
ATOM      8  O1  UNL     1      -7.996  99.550 124.636  0.00  0.00    +0.000 OA
ATOM      9  N3  UNL     1      -8.672  97.717 123.421  0.00  0.00    +0.000 N 
ATOM     10  C6  UNL     1      -9.073  96.392 123.418  0.00  0.00    +0.000 C 
ATOM     11  O2  UNL     1      -9.246  95.791 122.319  0.00  0.00    +0.000 OA
ATOM     12  N4  UNL     1      -9.278  95.713 124.601  0.00  0.00    +0.000 N 
ATOM     13  C7  UNL     1      -9.680  94.301 124.608  0.00  0.00    +0.000 C 
ATOM     14  C8  UNL     1      -8.445  98.418 122.147  0.00  0.00    +0.000 C 
ENDROOT
TORSDOF 0
ENDMDL
MODEL 2
REMARK VINA RESULT:      -3.4      1.529      3.000
REMARK  Name = .\Caffeine.pdb
REMARK  3 active torsions:
REMARK  status: ('A' for Active; 'I' for Inactive)
REMARK    1  A    between atoms: C1_1  and  N1_2
REMARK    2  A    between atoms: N3_9  and  C8_14
REMARK    3  A    between atoms: N4_12  and  C7_13
REMARK                            x       y       z     vdW  Elec       q    Type
REMARK                         _______ _______ _______ _____ _____    ______ ____
ROOT
ATOM      1  C1  UNL     1      -8.504  98.070 128.074  0.00  0.00    +0.000 C 
ATOM      2  N1  UNL     1      -8.444  98.363 126.646  0.00  0.00    +0.000 N 
ATOM      3  C2  UNL     1      -8.130  99.550 126.069  0.00  0.00    +0.000 C 
ATOM      4  N2  UNL     1      -8.178  99.513 124.712  0.00  0.00    +0.000 NA
ATOM      5  C3  UNL     1      -8.537  98.238 124.459  0.00  0.00    +0.000 C 
ATOM      6  C4  UNL     1      -8.700  97.547 125.610  0.00  0.00    +0.000 C 
ATOM      7  C5  UNL     1      -9.095  96.216 125.584  0.00  0.00    +0.000 C 
ATOM      8  O1  UNL     1      -9.267  95.577 126.658  0.00  0.00    +0.000 OA
ATOM      9  N3  UNL     1      -9.301  95.622 124.358  0.00  0.00    +0.000 N 
ATOM     10  C6  UNL     1      -9.157  96.359 123.194  0.00  0.00    +0.000 C 
ATOM     11  O2  UNL     1      -9.414  95.826 122.078  0.00  0.00    +0.000 OA
ATOM     12  N4  UNL     1      -8.743  97.675 123.238  0.00  0.00    +0.000 N 
ATOM     13  C7  UNL     1      -8.610  98.471 122.011  0.00  0.00    +0.000 C 
ATOM     14  C8  UNL     1      -9.758  94.225 124.289  0.00  0.00    +0.000 C 
ENDROOT
TORSDOF 0
ENDMDL
MODEL 3
REMARK VINA RESULT:      -3.4      1.529      3.676
REMARK  Name = .\Caffeine.pdb
REMARK  3 active torsions:
REMARK  status: ('A' for Active; 'I' for Inactive)
REMARK    1  A    between atoms: C1_1  and  N1_2
REMARK    2  A    between atoms: N3_9  and  C8_14
REMARK    3  A    between atoms: N4_12  and  C7_13
REMARK                            x       y       z     vdW  Elec       q    Type
REMARK                         _______ _______ _______ _____ _____    ______ ____
ROOT
ATOM      1  C1  UNL     1      -9.128  98.002 122.034  0.00  0.00    +0.000 C 
ATOM      2  N1  UNL     1      -9.150  97.031 123.124  0.00  0.00    +0.000 N 
ATOM      3  C2  UNL     1      -9.399  95.701 123.028  0.00  0.00    +0.000 C 
ATOM      4  N2  UNL     1      -9.367  95.064 124.226  0.00  0.00    +0.000 NA
ATOM      5  C3  UNL     1      -9.083  96.061 125.089  0.00  0.00    +0.000 C 
ATOM      6  C4  UNL     1      -8.955  97.239 124.436  0.00  0.00    +0.000 C 
ATOM      7  C5  UNL     1      -8.687  98.408 125.137  0.00  0.00    +0.000 C 
ATOM      8  O1  UNL     1      -8.588  99.510 124.531  0.00  0.00    +0.000 OA
ATOM      9  N3  UNL     1      -8.543  98.328 126.504  0.00  0.00    +0.000 N 
ATOM     10  C6  UNL     1      -8.708  97.115 127.153  0.00  0.00    +0.000 C 
ATOM     11  O2  UNL     1      -8.641  97.064 128.414  0.00  0.00    +0.000 OA
ATOM     12  N4  UNL     1      -8.953  95.961 126.439  0.00  0.00    +0.000 N 
ATOM     13  C7  UNL     1      -9.153  94.675 127.120  0.00  0.00    +0.000 C 
ATOM     14  C8  UNL     1      -8.296  99.550 127.287  0.00  0.00    +0.000 C 
ENDROOT
TORSDOF 0
ENDMDL
MODEL 4
REMARK VINA RESULT:      -3.3      2.769      4.533
REMARK  Name = .\Caffeine.pdb
REMARK  3 active torsions:
REMARK  status: ('A' for Active; 'I' for Inactive)
REMARK    1  A    between atoms: C1_1  and  N1_2
REMARK    2  A    between atoms: N3_9  and  C8_14
REMARK    3  A    between atoms: N4_12  and  C7_13
REMARK                            x       y       z     vdW  Elec       q    Type
REMARK                         _______ _______ _______ _____ _____    ______ ____
ROOT
ATOM      1  C1  UNL     1     -11.647  99.018 122.777  0.00  0.00    +0.000 C 
ATOM      2  N1  UNL     1     -10.251  98.768 123.126  0.00  0.00    +0.000 N 
ATOM      3  C2  UNL     1      -9.263  98.360 122.293  0.00  0.00    +0.000 C 
ATOM      4  N2  UNL     1      -8.070  98.196 122.920  0.00  0.00    +0.000 NA
ATOM      5  C3  UNL     1      -8.354  98.526 124.197  0.00  0.00    +0.000 C 
ATOM      6  C4  UNL     1      -9.657  98.865 124.326  0.00  0.00    +0.000 C 
ATOM      7  C5  UNL     1     -10.174  99.216 125.566  0.00  0.00    +0.000 C 
ATOM      8  O1  UNL     1     -11.394  99.513 125.691  0.00  0.00    +0.000 OA
ATOM      9  N3  UNL     1      -9.322  99.220 126.649  0.00  0.00    +0.000 N 
ATOM     10  C6  UNL     1      -7.999  98.840 126.497  0.00  0.00    +0.000 C 
ATOM     11  O2  UNL     1      -7.243  98.781 127.507  0.00  0.00    +0.000 OA
ATOM     12  N4  UNL     1      -7.497  98.514 125.253  0.00  0.00    +0.000 N 
ATOM     13  C7  UNL     1      -6.102  98.087 125.085  0.00  0.00    +0.000 C 
ATOM     14  C8  UNL     1      -9.841  99.549 127.987  0.00  0.00    +0.000 C 
ENDROOT
TORSDOF 0
ENDMDL
MODEL 5
REMARK VINA RESULT:      -3.3      2.500      3.486
REMARK  Name = .\Caffeine.pdb
REMARK  3 active torsions:
REMARK  status: ('A' for Active; 'I' for Inactive)
REMARK    1  A    between atoms: C1_1  and  N1_2
REMARK    2  A    between atoms: N3_9  and  C8_14
REMARK    3  A    between atoms: N4_12  and  C7_13
REMARK                            x       y       z     vdW  Elec       q    Type
REMARK                         _______ _______ _______ _____ _____    ______ ____
ROOT
ATOM      1  C1  UNL     1      -8.580  98.208 127.007  0.00  0.00    +0.000 C 
ATOM      2  N1  UNL     1      -7.834  98.435 125.773  0.00  0.00    +0.000 N 
ATOM      3  C2  UNL     1      -6.487  98.502 125.634  0.00  0.00    +0.000 C 
ATOM      4  N2  UNL     1      -6.093  98.744 124.357  0.00  0.00    +0.000 NA
ATOM      5  C3  UNL     1      -7.263  98.823 123.692  0.00  0.00    +0.000 C 
ATOM      6  C4  UNL     1      -8.307  98.642 124.533  0.00  0.00    +0.000 C 
ATOM      7  C5  UNL     1      -9.612  98.710 124.062  0.00  0.00    +0.000 C 
ATOM      8  O1  UNL     1     -10.586  98.562 124.850  0.00  0.00    +0.000 OA
ATOM      9  N3  UNL     1      -9.808  98.951 122.721  0.00  0.00    +0.000 N 
ATOM     10  C6  UNL     1      -8.724  99.163 121.885  0.00  0.00    +0.000 C 
ATOM     11  O2  UNL     1      -8.915  99.451 120.670  0.00  0.00    +0.000 OA
ATOM     12  N4  UNL     1      -7.434  99.071 122.365  0.00  0.00    +0.000 N 
ATOM     13  C7  UNL     1      -6.279  99.317 121.493  0.00  0.00    +0.000 C 
ATOM     14  C8  UNL     1     -11.176  99.069 122.190  0.00  0.00    +0.000 C 
ENDROOT
TORSDOF 0
ENDMDL
MODEL 6
REMARK VINA RESULT:      -3.1      1.612      3.955
REMARK  Name = .\Caffeine.pdb
REMARK  3 active torsions:
REMARK  status: ('A' for Active; 'I' for Inactive)
REMARK    1  A    between atoms: C1_1  and  N1_2
REMARK    2  A    between atoms: N3_9  and  C8_14
REMARK    3  A    between atoms: N4_12  and  C7_13
REMARK                            x       y       z     vdW  Elec       q    Type
REMARK                         _______ _______ _______ _____ _____    ______ ____
ROOT
ATOM      1  C1  UNL     1      -8.349  98.466 121.559  0.00  0.00    +0.000 C 
ATOM      2  N1  UNL     1      -8.319  98.509 123.017  0.00  0.00    +0.000 N 
ATOM      3  C2  UNL     1      -7.932  99.551 123.795  0.00  0.00    +0.000 C 
ATOM      4  N2  UNL     1      -7.999  99.278 125.123  0.00  0.00    +0.000 NA
ATOM      5  C3  UNL     1      -8.452  98.008 125.148  0.00  0.00    +0.000 C 
ATOM      6  C4  UNL     1      -8.643  97.542 123.891  0.00  0.00    +0.000 C 
ATOM      7  C5  UNL     1      -9.083  96.243 123.681  0.00  0.00    +0.000 C 
ATOM      8  O1  UNL     1      -9.241  95.801 122.510  0.00  0.00    +0.000 OA
ATOM      9  N3  UNL     1      -9.331  95.453 124.782  0.00  0.00    +0.000 N 
ATOM     10  C6  UNL     1      -9.100  95.943 126.057  0.00  0.00    +0.000 C 
ATOM     11  O2  UNL     1      -9.265  95.189 127.058  0.00  0.00    +0.000 OA
ATOM     12  N4  UNL     1      -8.682  97.244 126.249  0.00  0.00    +0.000 N 
ATOM     13  C7  UNL     1      -8.412  97.764 127.595  0.00  0.00    +0.000 C 
ATOM     14  C8  UNL     1      -9.763  94.057 124.600  0.00  0.00    +0.000 C 
ENDROOT
TORSDOF 0
ENDMDL
MODEL 7
REMARK VINA RESULT:      -3.0      2.515      4.215
REMARK  Name = .\Caffeine.pdb
REMARK  3 active torsions:
REMARK  status: ('A' for Active; 'I' for Inactive)
REMARK    1  A    between atoms: C1_1  and  N1_2
REMARK    2  A    between atoms: N3_9  and  C8_14
REMARK    3  A    between atoms: N4_12  and  C7_13
REMARK                            x       y       z     vdW  Elec       q    Type
REMARK                         _______ _______ _______ _____ _____    ______ ____
ROOT
ATOM      1  C1  UNL     1     -11.059  98.915 122.185  0.00  0.00    +0.000 C 
ATOM      2  N1  UNL     1     -10.888  99.084 123.625  0.00  0.00    +0.000 N 
ATOM      3  C2  UNL     1     -11.834  99.464 124.519  0.00  0.00    +0.000 C 
ATOM      4  N2  UNL     1     -11.363  99.550 125.790  0.00  0.00    +0.000 NA
ATOM      5  C3  UNL     1     -10.067  99.203 125.654  0.00  0.00    +0.000 C 
ATOM      6  C4  UNL     1      -9.777  98.926 124.362  0.00  0.00    +0.000 C 
ATOM      7  C5  UNL     1      -8.487  98.570 123.990  0.00  0.00    +0.000 C 
ATOM      8  O1  UNL     1      -8.212  98.332 122.782  0.00  0.00    +0.000 OA
ATOM      9  N3  UNL     1      -7.524  98.494 124.971  0.00  0.00    +0.000 N 
ATOM     10  C6  UNL     1      -7.838  98.811 126.283  0.00  0.00    +0.000 C 
ATOM     11  O2  UNL     1      -6.933  98.806 127.164  0.00  0.00    +0.000 OA
ATOM     12  N4  UNL     1      -9.130  99.143 126.638  0.00  0.00    +0.000 N 
ATOM     13  C7  UNL     1      -9.468  99.503 128.021  0.00  0.00    +0.000 C 
ATOM     14  C8  UNL     1      -6.137  98.158 124.611  0.00  0.00    +0.000 C 
ENDROOT
TORSDOF 0
ENDMDL
MODEL 8
REMARK VINA RESULT:      -3.0      2.458      4.128
REMARK  Name = .\Caffeine.pdb
REMARK  3 active torsions:
REMARK  status: ('A' for Active; 'I' for Inactive)
REMARK    1  A    between atoms: C1_1  and  N1_2
REMARK    2  A    between atoms: N3_9  and  C8_14
REMARK    3  A    between atoms: N4_12  and  C7_13
REMARK                            x       y       z     vdW  Elec       q    Type
REMARK                         _______ _______ _______ _____ _____    ______ ____
ROOT
ATOM      1  C1  UNL     1     -11.790  99.550 121.199  0.00  0.00    +0.000 C 
ATOM      2  N1  UNL     1     -11.213  99.139 122.475  0.00  0.00    +0.000 N 
ATOM      3  C2  UNL     1     -11.882  98.842 123.616  0.00  0.00    +0.000 C 
ATOM      4  N2  UNL     1     -11.061  98.509 124.645  0.00  0.00    +0.000 NA
ATOM      5  C3  UNL     1      -9.834  98.609 124.096  0.00  0.00    +0.000 C 
ATOM      6  C4  UNL     1      -9.918  98.988 122.799  0.00  0.00    +0.000 C 
ATOM      7  C5  UNL     1      -8.768  99.177 122.045  0.00  0.00    +0.000 C 
ATOM      8  O1  UNL     1      -8.845  99.550 120.842  0.00  0.00    +0.000 OA
ATOM      9  N3  UNL     1      -7.550  98.956 122.648  0.00  0.00    +0.000 N 
ATOM     10  C6  UNL     1      -7.489  98.597 123.985  0.00  0.00    +0.000 C 
ATOM     11  O2  UNL     1      -6.366  98.463 124.548  0.00  0.00    +0.000 OA
ATOM     12  N4  UNL     1      -8.642  98.393 124.714  0.00  0.00    +0.000 N 
ATOM     13  C7  UNL     1      -8.588  98.036 126.137  0.00  0.00    +0.000 C 
ATOM     14  C8  UNL     1      -6.307  99.183 121.893  0.00  0.00    +0.000 C 
ENDROOT
TORSDOF 0
ENDMDL
MODEL 9
REMARK VINA RESULT:      -2.8      2.499      4.964
REMARK  Name = .\Caffeine.pdb
REMARK  3 active torsions:
REMARK  status: ('A' for Active; 'I' for Inactive)
REMARK    1  A    between atoms: C1_1  and  N1_2
REMARK    2  A    between atoms: N3_9  and  C8_14
REMARK    3  A    between atoms: N4_12  and  C7_13
REMARK                            x       y       z     vdW  Elec       q    Type
REMARK                         _______ _______ _______ _____ _____    ______ ____
ROOT
ATOM      1  C1  UNL     1     -12.273  99.134 122.303  0.00  0.00    +0.000 C 
ATOM      2  N1  UNL     1     -10.848  99.239 122.005  0.00  0.00    +0.000 N 
ATOM      3  C2  UNL     1     -10.284  99.550 120.812  0.00  0.00    +0.000 C 
ATOM      4  N2  UNL     1      -8.927  99.550 120.847  0.00  0.00    +0.000 NA
ATOM      5  C3  UNL     1      -8.659  99.226 122.129  0.00  0.00    +0.000 C 
ATOM      6  C4  UNL     1      -9.804  99.036 122.825  0.00  0.00    +0.000 C 
ATOM      7  C5  UNL     1      -9.762  98.668 124.163  0.00  0.00    +0.000 C 
ATOM      8  O1  UNL     1     -10.828  98.470 124.807  0.00  0.00    +0.000 OA
ATOM      9  N3  UNL     1      -8.529  98.516 124.758  0.00  0.00    +0.000 N 
ATOM     10  C6  UNL     1      -7.371  98.687 124.016  0.00  0.00    +0.000 C 
ATOM     11  O2  UNL     1      -6.246  98.480 124.553  0.00  0.00    +0.000 OA
ATOM     12  N4  UNL     1      -7.431  99.073 122.693  0.00  0.00    +0.000 N 
ATOM     13  C7  UNL     1      -6.211  99.234 121.893  0.00  0.00    +0.000 C 
ATOM     14  C8  UNL     1      -8.442  98.089 126.164  0.00  0.00    +0.000 C 
ENDROOT
TORSDOF 0
ENDMDL
