MODEL 1
REMARK VINA RESULT:      -3.7      0.000      0.000
REMARK  Name = .\Caffeine.pdb
REMARK  3 active torsions:
REMARK  status: ('A' for Active; 'I' for Inactive)
REMARK    1  A    between atoms: C1_1  and  N1_2
REMARK    2  A    between atoms: N3_9  and  C8_14
REMARK    3  A    between atoms: N4_12  and  C7_13
REMARK                            x       y       z     vdW  Elec       q    Type
REMARK                         _______ _______ _______ _____ _____    ______ ____
ROOT
ATOM      1  C1  UNL     1      -2.860  31.574  32.495  0.00  0.00    +0.000 C 
ATOM      2  N1  UNL     1      -2.393  32.859  31.983  0.00  0.00    +0.000 N 
ATOM      3  C2  UNL     1      -2.125  33.976  32.703  0.00  0.00    +0.000 C 
ATOM      4  N2  UNL     1      -1.724  35.022  31.936  0.00  0.00    +0.000 NA
ATOM      5  C3  UNL     1      -1.747  34.507  30.690  0.00  0.00    +0.000 C 
ATOM      6  C4  UNL     1      -2.149  33.216  30.711  0.00  0.00    +0.000 C 
ATOM      7  C5  UNL     1      -2.271  32.496  29.530  0.00  0.00    +0.000 C 
ATOM      8  O1  UNL     1      -2.666  31.298  29.548  0.00  0.00    +0.000 OA
ATOM      9  N3  UNL     1      -1.960  33.129  28.347  0.00  0.00    +0.000 N 
ATOM     10  C6  UNL     1      -1.579  34.461  28.348  0.00  0.00    +0.000 C 
ATOM     11  O2  UNL     1      -1.361  35.052  27.253  0.00  0.00    +0.000 OA
ATOM     12  N4  UNL     1      -1.443  35.155  29.533  0.00  0.00    +0.000 N 
ATOM     13  C7  UNL     1      -1.063  36.573  29.543  0.00  0.00    +0.000 C 
ATOM     14  C8  UNL     1      -2.113  32.411  27.071  0.00  0.00    +0.000 C 
ENDROOT
TORSDOF 0
ENDMDL
MODEL 2
REMARK VINA RESULT:      -3.4      1.701      4.020
REMARK  Name = .\Caffeine.pdb
REMARK  3 active torsions:
REMARK  status: ('A' for Active; 'I' for Inactive)
REMARK    1  A    between atoms: C1_1  and  N1_2
REMARK    2  A    between atoms: N3_9  and  C8_14
REMARK    3  A    between atoms: N4_12  and  C7_13
REMARK                            x       y       z     vdW  Elec       q    Type
REMARK                         _______ _______ _______ _____ _____    ______ ____
ROOT
ATOM      1  C1  UNL     1      -2.451  32.419  26.470  0.00  0.00    +0.000 C 
ATOM      2  N1  UNL     1      -2.608  32.326  27.918  0.00  0.00    +0.000 N 
ATOM      3  C2  UNL     1      -3.153  31.298  28.615  0.00  0.00    +0.000 C 
ATOM      4  N2  UNL     1      -3.175  31.515  29.955  0.00  0.00    +0.000 NA
ATOM      5  C3  UNL     1      -2.612  32.735  30.072  0.00  0.00    +0.000 C 
ATOM      6  C4  UNL     1      -2.274  33.226  28.857  0.00  0.00    +0.000 C 
ATOM      7  C5  UNL     1      -1.700  34.485  28.740  0.00  0.00    +0.000 C 
ATOM      8  O1  UNL     1      -1.404  34.952  27.606  0.00  0.00    +0.000 OA
ATOM      9  N3  UNL     1      -1.476  35.207  29.892  0.00  0.00    +0.000 N 
ATOM     10  C6  UNL     1      -1.859  34.696  31.121  0.00  0.00    +0.000 C 
ATOM     11  O2  UNL     1      -1.712  35.393  32.164  0.00  0.00    +0.000 OA
ATOM     12  N4  UNL     1      -2.408  33.434  31.220  0.00  0.00    +0.000 N 
ATOM     13  C7  UNL     1      -2.838  32.892  32.516  0.00  0.00    +0.000 C 
ATOM     14  C8  UNL     1      -0.906  36.562  29.807  0.00  0.00    +0.000 C 
ENDROOT
TORSDOF 0
ENDMDL
MODEL 3
REMARK VINA RESULT:      -3.4      1.484      2.987
REMARK  Name = .\Caffeine.pdb
REMARK  3 active torsions:
REMARK  status: ('A' for Active; 'I' for Inactive)
REMARK    1  A    between atoms: C1_1  and  N1_2
REMARK    2  A    between atoms: N3_9  and  C8_14
REMARK    3  A    between atoms: N4_12  and  C7_13
REMARK                            x       y       z     vdW  Elec       q    Type
REMARK                         _______ _______ _______ _____ _____    ______ ____
ROOT
ATOM      1  C1  UNL     1      -2.359  32.816  33.230  0.00  0.00    +0.000 C 
ATOM      2  N1  UNL     1      -2.349  32.506  31.804  0.00  0.00    +0.000 N 
ATOM      3  C2  UNL     1      -2.572  31.298  31.230  0.00  0.00    +0.000 C 
ATOM      4  N2  UNL     1      -2.475  31.324  29.876  0.00  0.00    +0.000 NA
ATOM      5  C3  UNL     1      -2.180  32.615  29.621  0.00  0.00    +0.000 C 
ATOM      6  C4  UNL     1      -2.101  33.326  30.770  0.00  0.00    +0.000 C 
ATOM      7  C5  UNL     1      -1.781  34.677  30.742  0.00  0.00    +0.000 C 
ATOM      8  O1  UNL     1      -1.686  35.334  31.815  0.00  0.00    +0.000 OA
ATOM      9  N3  UNL     1      -1.563  35.269  29.518  0.00  0.00    +0.000 N 
ATOM     10  C6  UNL     1      -1.621  34.514  28.358  0.00  0.00    +0.000 C 
ATOM     11  O2  UNL     1      -1.352  35.051  27.246  0.00  0.00    +0.000 OA
ATOM     12  N4  UNL     1      -1.960  33.178  28.402  0.00  0.00    +0.000 N 
ATOM     13  C7  UNL     1      -2.001  32.364  27.180  0.00  0.00    +0.000 C 
ATOM     14  C8  UNL     1      -1.184  36.690  29.450  0.00  0.00    +0.000 C 
ENDROOT
TORSDOF 0
ENDMDL
MODEL 4
REMARK VINA RESULT:      -3.3      1.523      3.692
REMARK  Name = .\Caffeine.pdb
REMARK  3 active torsions:
REMARK  status: ('A' for Active; 'I' for Inactive)
REMARK    1  A    between atoms: C1_1  and  N1_2
REMARK    2  A    between atoms: N3_9  and  C8_14
REMARK    3  A    between atoms: N4_12  and  C7_13
REMARK                            x       y       z     vdW  Elec       q    Type
REMARK                         _______ _______ _______ _____ _____    ______ ____
ROOT
ATOM      1  C1  UNL     1      -1.748  32.838  27.173  0.00  0.00    +0.000 C 
ATOM      2  N1  UNL     1      -1.721  33.809  28.262  0.00  0.00    +0.000 N 
ATOM      3  C2  UNL     1      -1.461  35.136  28.166  0.00  0.00    +0.000 C 
ATOM      4  N2  UNL     1      -1.491  35.774  29.364  0.00  0.00    +0.000 NA
ATOM      5  C3  UNL     1      -1.789  34.781  30.227  0.00  0.00    +0.000 C 
ATOM      6  C4  UNL     1      -1.924  33.603  29.574  0.00  0.00    +0.000 C 
ATOM      7  C5  UNL     1      -2.206  32.438  30.274  0.00  0.00    +0.000 C 
ATOM      8  O1  UNL     1      -2.312  31.336  29.669  0.00  0.00    +0.000 OA
ATOM      9  N3  UNL     1      -2.355  32.520  31.641  0.00  0.00    +0.000 N 
ATOM     10  C6  UNL     1      -2.181  33.732  32.290  0.00  0.00    +0.000 C 
ATOM     11  O2  UNL     1      -2.253  33.784  33.550  0.00  0.00    +0.000 OA
ATOM     12  N4  UNL     1      -1.923  34.884  31.576  0.00  0.00    +0.000 N 
ATOM     13  C7  UNL     1      -1.714  36.168  32.256  0.00  0.00    +0.000 C 
ATOM     14  C8  UNL     1      -2.615  31.300  32.424  0.00  0.00    +0.000 C 
ENDROOT
TORSDOF 0
ENDMDL
MODEL 5
REMARK VINA RESULT:      -3.3      2.783      4.539
REMARK  Name = .\Caffeine.pdb
REMARK  3 active torsions:
REMARK  status: ('A' for Active; 'I' for Inactive)
REMARK    1  A    between atoms: C1_1  and  N1_2
REMARK    2  A    between atoms: N3_9  and  C8_14
REMARK    3  A    between atoms: N4_12  and  C7_13
REMARK                            x       y       z     vdW  Elec       q    Type
REMARK                         _______ _______ _______ _____ _____    ______ ____
ROOT
ATOM      1  C1  UNL     1       0.983  31.781  28.067  0.00  0.00    +0.000 C 
ATOM      2  N1  UNL     1      -0.418  32.046  28.376  0.00  0.00    +0.000 N 
ATOM      3  C2  UNL     1      -1.381  32.457  27.514  0.00  0.00    +0.000 C 
ATOM      4  N2  UNL     1      -2.589  32.635  28.108  0.00  0.00    +0.000 NA
ATOM      5  C3  UNL     1      -2.342  32.313  29.394  0.00  0.00    +0.000 C 
ATOM      6  C4  UNL     1      -1.045  31.963  29.561  0.00  0.00    +0.000 C 
ATOM      7  C5  UNL     1      -0.565  31.617  30.817  0.00  0.00    +0.000 C 
ATOM      8  O1  UNL     1       0.648  31.311  30.976  0.00  0.00    +0.000 OA
ATOM      9  N3  UNL     1      -1.445  31.628  31.876  0.00  0.00    +0.000 N 
ATOM     10  C6  UNL     1      -2.760  32.019  31.686  0.00  0.00    +0.000 C 
ATOM     11  O2  UNL     1      -3.543  32.092  32.675  0.00  0.00    +0.000 OA
ATOM     12  N4  UNL     1      -3.226  32.340  30.427  0.00  0.00    +0.000 N 
ATOM     13  C7  UNL     1      -4.612  32.778  30.219  0.00  0.00    +0.000 C 
ATOM     14  C8  UNL     1      -0.965  31.305  33.230  0.00  0.00    +0.000 C 
ENDROOT
TORSDOF 0
ENDMDL
MODEL 6
REMARK VINA RESULT:      -3.2      2.474      3.351
REMARK  Name = .\Caffeine.pdb
REMARK  3 active torsions:
REMARK  status: ('A' for Active; 'I' for Inactive)
REMARK    1  A    between atoms: C1_1  and  N1_2
REMARK    2  A    between atoms: N3_9  and  C8_14
REMARK    3  A    between atoms: N4_12  and  C7_13
REMARK                            x       y       z     vdW  Elec       q    Type
REMARK                         _______ _______ _______ _____ _____    ______ ____
ROOT
ATOM      1  C1  UNL     1      -2.361  32.442  32.406  0.00  0.00    +0.000 C 
ATOM      2  N1  UNL     1      -3.055  32.218  31.141  0.00  0.00    +0.000 N 
ATOM      3  C2  UNL     1      -4.386  32.036  30.962  0.00  0.00    +0.000 C 
ATOM      4  N2  UNL     1      -4.726  31.831  29.663  0.00  0.00    +0.000 NA
ATOM      5  C3  UNL     1      -3.539  31.897  29.027  0.00  0.00    +0.000 C 
ATOM      6  C4  UNL     1      -2.536  32.124  29.906  0.00  0.00    +0.000 C 
ATOM      7  C5  UNL     1      -1.220  32.203  29.469  0.00  0.00    +0.000 C 
ATOM      8  O1  UNL     1      -0.282  32.394  30.291  0.00  0.00    +0.000 OA
ATOM      9  N3  UNL     1      -0.972  32.056  28.122  0.00  0.00    +0.000 N 
ATOM     10  C6  UNL     1      -2.013  31.793  27.246  0.00  0.00    +0.000 C 
ATOM     11  O2  UNL     1      -1.768  31.592  26.023  0.00  0.00    +0.000 OA
ATOM     12  N4  UNL     1      -3.316  31.740  27.695  0.00  0.00    +0.000 N 
ATOM     13  C7  UNL     1      -4.424  31.439  26.778  0.00  0.00    +0.000 C 
ATOM     14  C8  UNL     1       0.413  32.094  27.624  0.00  0.00    +0.000 C 
ENDROOT
TORSDOF 0
ENDMDL
MODEL 7
REMARK VINA RESULT:      -2.8      2.952      4.251
REMARK  Name = .\Caffeine.pdb
REMARK  3 active torsions:
REMARK  status: ('A' for Active; 'I' for Inactive)
REMARK    1  A    between atoms: C1_1  and  N1_2
REMARK    2  A    between atoms: N3_9  and  C8_14
REMARK    3  A    between atoms: N4_12  and  C7_13
REMARK                            x       y       z     vdW  Elec       q    Type
REMARK                         _______ _______ _______ _____ _____    ______ ____
ROOT
ATOM      1  C1  UNL     1      -4.033  31.592  26.077  0.00  0.00    +0.000 C 
ATOM      2  N1  UNL     1      -3.684  31.607  27.494  0.00  0.00    +0.000 N 
ATOM      3  C2  UNL     1      -4.540  31.672  28.544  0.00  0.00    +0.000 C 
ATOM      4  N2  UNL     1      -3.908  31.688  29.746  0.00  0.00    +0.000 NA
ATOM      5  C3  UNL     1      -2.606  31.626  29.403  0.00  0.00    +0.000 C 
ATOM      6  C4  UNL     1      -2.466  31.581  28.058  0.00  0.00    +0.000 C 
ATOM      7  C5  UNL     1      -1.203  31.539  27.482  0.00  0.00    +0.000 C 
ATOM      8  O1  UNL     1      -1.072  31.518  26.227  0.00  0.00    +0.000 OA
ATOM      9  N3  UNL     1      -0.107  31.533  28.316  0.00  0.00    +0.000 N 
ATOM     10  C6  UNL     1      -0.275  31.610  29.688  0.00  0.00    +0.000 C 
ATOM     11  O2  UNL     1       0.737  31.673  30.442  0.00  0.00    +0.000 OA
ATOM     12  N4  UNL     1      -1.538  31.629  30.245  0.00  0.00    +0.000 N 
ATOM     13  C7  UNL     1      -1.726  31.735  31.697  0.00  0.00    +0.000 C 
ATOM     14  C8  UNL     1       1.249  31.529  27.742  0.00  0.00    +0.000 C 
ENDROOT
TORSDOF 0
ENDMDL
MODEL 8
REMARK VINA RESULT:      -2.7      1.841      4.455
REMARK  Name = .\Caffeine.pdb
REMARK  3 active torsions:
REMARK  status: ('A' for Active; 'I' for Inactive)
REMARK    1  A    between atoms: C1_1  and  N1_2
REMARK    2  A    between atoms: N3_9  and  C8_14
REMARK    3  A    between atoms: N4_12  and  C7_13
REMARK                            x       y       z     vdW  Elec       q    Type
REMARK                         _______ _______ _______ _____ _____    ______ ____
ROOT
ATOM      1  C1  UNL     1      -0.137  35.754  29.405  0.00  0.00    +0.000 C 
ATOM      2  N1  UNL     1      -1.007  34.694  28.904  0.00  0.00    +0.000 N 
ATOM      3  C2  UNL     1      -1.166  34.311  27.613  0.00  0.00    +0.000 C 
ATOM      4  N2  UNL     1      -2.065  33.304  27.462  0.00  0.00    +0.000 NA
ATOM      5  C3  UNL     1      -2.465  33.066  28.728  0.00  0.00    +0.000 C 
ATOM      6  C4  UNL     1      -1.839  33.896  29.594  0.00  0.00    +0.000 C 
ATOM      7  C5  UNL     1      -2.121  33.842  30.952  0.00  0.00    +0.000 C 
ATOM      8  O1  UNL     1      -1.553  34.630  31.757  0.00  0.00    +0.000 OA
ATOM      9  N3  UNL     1      -3.042  32.916  31.388  0.00  0.00    +0.000 N 
ATOM     10  C6  UNL     1      -3.693  32.097  30.479  0.00  0.00    +0.000 C 
ATOM     11  O2  UNL     1      -4.585  31.298  30.881  0.00  0.00    +0.000 OA
ATOM     12  N4  UNL     1      -3.384  32.150  29.136  0.00  0.00    +0.000 N 
ATOM     13  C7  UNL     1      -4.084  31.304  28.161  0.00  0.00    +0.000 C 
ATOM     14  C8  UNL     1      -3.398  32.853  32.816  0.00  0.00    +0.000 C 
ENDROOT
TORSDOF 0
ENDMDL
MODEL 9
REMARK VINA RESULT:      -2.4      1.779      4.690
REMARK  Name = .\Caffeine.pdb
REMARK  3 active torsions:
REMARK  status: ('A' for Active; 'I' for Inactive)
REMARK    1  A    between atoms: C1_1  and  N1_2
REMARK    2  A    between atoms: N3_9  and  C8_14
REMARK    3  A    between atoms: N4_12  and  C7_13
REMARK                            x       y       z     vdW  Elec       q    Type
REMARK                         _______ _______ _______ _____ _____    ______ ____
ROOT
ATOM      1  C1  UNL     1      -1.355  35.147  27.410  0.00  0.00    +0.000 C 
ATOM      2  N1  UNL     1      -1.642  34.067  28.348  0.00  0.00    +0.000 N 
ATOM      3  C2  UNL     1      -1.854  32.761  28.048  0.00  0.00    +0.000 C 
ATOM      4  N2  UNL     1      -2.117  31.999  29.141  0.00  0.00    +0.000 NA
ATOM      5  C3  UNL     1      -2.058  32.891  30.151  0.00  0.00    +0.000 C 
ATOM      6  C4  UNL     1      -1.778  34.129  29.682  0.00  0.00    +0.000 C 
ATOM      7  C5  UNL     1      -1.696  35.209  30.551  0.00  0.00    +0.000 C 
ATOM      8  O1  UNL     1      -1.455  36.367  30.112  0.00  0.00    +0.000 OA
ATOM      9  N3  UNL     1      -1.894  34.981  31.894  0.00  0.00    +0.000 N 
ATOM     10  C6  UNL     1      -2.210  33.710  32.346  0.00  0.00    +0.000 C 
ATOM     11  O2  UNL     1      -2.457  33.523  33.571  0.00  0.00    +0.000 OA
ATOM     12  N4  UNL     1      -2.266  32.644  31.472  0.00  0.00    +0.000 N 
ATOM     13  C7  UNL     1      -2.623  31.298  31.938  0.00  0.00    +0.000 C 
ATOM     14  C8  UNL     1      -1.854  36.107  32.842  0.00  0.00    +0.000 C 
ENDROOT
TORSDOF 0
ENDMDL
