MODEL 1
REMARK VINA RESULT:      -4.5      0.000      0.000
REMARK  Name = .\Caffeine.pdb
REMARK  3 active torsions:
REMARK  status: ('A' for Active; 'I' for Inactive)
REMARK    1  A    between atoms: C1_1  and  N1_2
REMARK    2  A    between atoms: N3_9  and  C8_14
REMARK    3  A    between atoms: N4_12  and  C7_13
REMARK                            x       y       z     vdW  Elec       q    Type
REMARK                         _______ _______ _______ _____ _____    ______ ____
ROOT
ATOM      1  C1  UNL     1     -21.074  82.750 111.752  0.00  0.00    +0.000 C 
ATOM      2  N1  UNL     1     -20.259  81.820 112.527  0.00  0.00    +0.000 N 
ATOM      3  C2  UNL     1     -19.214  81.081 112.078  0.00  0.00    +0.000 C 
ATOM      4  N2  UNL     1     -18.667  80.292 113.039  0.00  0.00    +0.000 NA
ATOM      5  C3  UNL     1     -19.419  80.573 114.123  0.00  0.00    +0.000 C 
ATOM      6  C4  UNL     1     -20.374  81.483 113.822  0.00  0.00    +0.000 C 
ATOM      7  C5  UNL     1     -21.281  81.898 114.788  0.00  0.00    +0.000 C 
ATOM      8  O1  UNL     1     -22.184  82.731 114.503  0.00  0.00    +0.000 OA
ATOM      9  N3  UNL     1     -21.170  81.369 116.055  0.00  0.00    +0.000 N 
ATOM     10  C6  UNL     1     -20.203  80.416 116.330  0.00  0.00    +0.000 C 
ATOM     11  O2  UNL     1     -20.152  79.886 117.476  0.00  0.00    +0.000 OA
ATOM     12  N4  UNL     1     -19.297  80.031 115.364  0.00  0.00    +0.000 N 
ATOM     13  C7  UNL     1     -18.283  79.004 115.639  0.00  0.00    +0.000 C 
ATOM     14  C8  UNL     1     -22.136  81.755 117.097  0.00  0.00    +0.000 C 
ENDROOT
TORSDOF 0
ENDMDL
MODEL 2
REMARK VINA RESULT:      -4.4      1.593      3.577
REMARK  Name = .\Caffeine.pdb
REMARK  3 active torsions:
REMARK  status: ('A' for Active; 'I' for Inactive)
REMARK    1  A    between atoms: C1_1  and  N1_2
REMARK    2  A    between atoms: N3_9  and  C8_14
REMARK    3  A    between atoms: N4_12  and  C7_13
REMARK                            x       y       z     vdW  Elec       q    Type
REMARK                         _______ _______ _______ _____ _____    ______ ____
ROOT
ATOM      1  C1  UNL     1     -20.767  79.082 117.247  0.00  0.00    +0.000 C 
ATOM      2  N1  UNL     1     -19.958  79.506 116.109  0.00  0.00    +0.000 N 
ATOM      3  C2  UNL     1     -18.808  78.939 115.669  0.00  0.00    +0.000 C 
ATOM      4  N2  UNL     1     -18.276  79.576 114.594  0.00  0.00    +0.000 NA
ATOM      5  C3  UNL     1     -19.152  80.578 114.375  0.00  0.00    +0.000 C 
ATOM      6  C4  UNL     1     -20.157  80.543 115.279  0.00  0.00    +0.000 C 
ATOM      7  C5  UNL     1     -21.161  81.503 115.255  0.00  0.00    +0.000 C 
ATOM      8  O1  UNL     1     -22.087  81.483 116.111  0.00  0.00    +0.000 OA
ATOM      9  N3  UNL     1     -21.108  82.475 114.281  0.00  0.00    +0.000 N 
ATOM     10  C6  UNL     1     -20.052  82.507 113.384  0.00  0.00    +0.000 C 
ATOM     11  O2  UNL     1     -19.976  83.442 112.538  0.00  0.00    +0.000 OA
ATOM     12  N4  UNL     1     -19.075  81.533 113.410  0.00  0.00    +0.000 N 
ATOM     13  C7  UNL     1     -17.940  81.572 112.479  0.00  0.00    +0.000 C 
ATOM     14  C8  UNL     1     -22.132  83.532 114.245  0.00  0.00    +0.000 C 
ENDROOT
TORSDOF 0
ENDMDL
MODEL 3
REMARK VINA RESULT:      -4.3      1.493      2.998
REMARK  Name = .\Caffeine.pdb
REMARK  3 active torsions:
REMARK  status: ('A' for Active; 'I' for Inactive)
REMARK    1  A    between atoms: C1_1  and  N1_2
REMARK    2  A    between atoms: N3_9  and  C8_14
REMARK    3  A    between atoms: N4_12  and  C7_13
REMARK                            x       y       z     vdW  Elec       q    Type
REMARK                         _______ _______ _______ _____ _____    ______ ____
ROOT
ATOM      1  C1  UNL     1     -19.927  82.266 111.479  0.00  0.00    +0.000 C 
ATOM      2  N1  UNL     1     -20.606  82.266 112.771  0.00  0.00    +0.000 N 
ATOM      3  C2  UNL     1     -21.643  83.054 113.148  0.00  0.00    +0.000 C 
ATOM      4  N2  UNL     1     -22.047  82.831 114.425  0.00  0.00    +0.000 NA
ATOM      5  C3  UNL     1     -21.211  81.857 114.838  0.00  0.00    +0.000 C 
ATOM      6  C4  UNL     1     -20.346  81.517 113.855  0.00  0.00    +0.000 C 
ATOM      7  C5  UNL     1     -19.376  80.547 114.073  0.00  0.00    +0.000 C 
ATOM      8  O1  UNL     1     -18.556  80.245 113.164  0.00  0.00    +0.000 OA
ATOM      9  N3  UNL     1     -19.332  79.938 115.307  0.00  0.00    +0.000 N 
ATOM     10  C6  UNL     1     -20.209  80.324 116.308  0.00  0.00    +0.000 C 
ATOM     11  O2  UNL     1     -20.116  79.808 117.457  0.00  0.00    +0.000 OA
ATOM     12  N4  UNL     1     -21.180  81.274 116.067  0.00  0.00    +0.000 N 
ATOM     13  C7  UNL     1     -22.099  81.707 117.127  0.00  0.00    +0.000 C 
ATOM     14  C8  UNL     1     -18.294  78.933 115.591  0.00  0.00    +0.000 C 
ENDROOT
TORSDOF 0
ENDMDL
MODEL 4
REMARK VINA RESULT:      -4.3      1.848      4.562
REMARK  Name = .\Caffeine.pdb
REMARK  3 active torsions:
REMARK  status: ('A' for Active; 'I' for Inactive)
REMARK    1  A    between atoms: C1_1  and  N1_2
REMARK    2  A    between atoms: N3_9  and  C8_14
REMARK    3  A    between atoms: N4_12  and  C7_13
REMARK                            x       y       z     vdW  Elec       q    Type
REMARK                         _______ _______ _______ _____ _____    ______ ____
ROOT
ATOM      1  C1  UNL     1     -18.400  78.945 115.470  0.00  0.00    +0.000 C 
ATOM      2  N1  UNL     1     -19.538  79.859 115.453  0.00  0.00    +0.000 N 
ATOM      3  C2  UNL     1     -20.500  79.983 116.400  0.00  0.00    +0.000 C 
ATOM      4  N2  UNL     1     -21.440  80.912 116.087  0.00  0.00    +0.000 NA
ATOM      5  C3  UNL     1     -21.021  81.373 114.891  0.00  0.00    +0.000 C 
ATOM      6  C4  UNL     1     -19.886  80.745 114.505  0.00  0.00    +0.000 C 
ATOM      7  C5  UNL     1     -19.293  81.048 113.287  0.00  0.00    +0.000 C 
ATOM      8  O1  UNL     1     -18.246  80.448 112.917  0.00  0.00    +0.000 OA
ATOM      9  N3  UNL     1     -19.883  82.008 112.496  0.00  0.00    +0.000 N 
ATOM     10  C6  UNL     1     -21.062  82.615 112.899  0.00  0.00    +0.000 C 
ATOM     11  O2  UNL     1     -21.633  83.445 112.137  0.00  0.00    +0.000 OA
ATOM     12  N4  UNL     1     -21.626  82.318 114.122  0.00  0.00    +0.000 N 
ATOM     13  C7  UNL     1     -22.887  82.938 114.548  0.00  0.00    +0.000 C 
ATOM     14  C8  UNL     1     -19.306  82.330 111.180  0.00  0.00    +0.000 C 
ENDROOT
TORSDOF 0
ENDMDL
MODEL 5
REMARK VINA RESULT:      -4.2      1.778      4.449
REMARK  Name = .\Caffeine.pdb
REMARK  3 active torsions:
REMARK  status: ('A' for Active; 'I' for Inactive)
REMARK    1  A    between atoms: C1_1  and  N1_2
REMARK    2  A    between atoms: N3_9  and  C8_14
REMARK    3  A    between atoms: N4_12  and  C7_13
REMARK                            x       y       z     vdW  Elec       q    Type
REMARK                         _______ _______ _______ _____ _____    ______ ____
ROOT
ATOM      1  C1  UNL     1     -22.415  80.310 118.589  0.00  0.00    +0.000 C 
ATOM      2  N1  UNL     1     -22.060  81.004 117.355  0.00  0.00    +0.000 N 
ATOM      3  C2  UNL     1     -22.687  82.078 116.814  0.00  0.00    +0.000 C 
ATOM      4  N2  UNL     1     -22.130  82.487 115.644  0.00  0.00    +0.000 NA
ATOM      5  C3  UNL     1     -21.114  81.617 115.474  0.00  0.00    +0.000 C 
ATOM      6  C4  UNL     1     -21.070  80.726 116.492  0.00  0.00    +0.000 C 
ATOM      7  C5  UNL     1     -20.113  79.720 116.506  0.00  0.00    +0.000 C 
ATOM      8  O1  UNL     1     -20.084  78.876 117.443  0.00  0.00    +0.000 OA
ATOM      9  N3  UNL     1     -19.211  79.665 115.466  0.00  0.00    +0.000 N 
ATOM     10  C6  UNL     1     -19.296  80.569 114.421  0.00  0.00    +0.000 C 
ATOM     11  O2  UNL     1     -18.508  80.469 113.439  0.00  0.00    +0.000 OA
ATOM     12  N4  UNL     1     -20.239  81.576 114.434  0.00  0.00    +0.000 N 
ATOM     13  C7  UNL     1     -20.352  82.525 113.319  0.00  0.00    +0.000 C 
ATOM     14  C8  UNL     1     -18.207  78.589 115.425  0.00  0.00    +0.000 C 
ENDROOT
TORSDOF 0
ENDMDL
MODEL 6
REMARK VINA RESULT:      -4.2      1.632      3.698
REMARK  Name = .\Caffeine.pdb
REMARK  3 active torsions:
REMARK  status: ('A' for Active; 'I' for Inactive)
REMARK    1  A    between atoms: C1_1  and  N1_2
REMARK    2  A    between atoms: N3_9  and  C8_14
REMARK    3  A    between atoms: N4_12  and  C7_13
REMARK                            x       y       z     vdW  Elec       q    Type
REMARK                         _______ _______ _______ _____ _____    ______ ____
ROOT
ATOM      1  C1  UNL     1     -23.007  82.304 117.429  0.00  0.00    +0.000 C 
ATOM      2  N1  UNL     1     -21.919  81.369 117.162  0.00  0.00    +0.000 N 
ATOM      3  C2  UNL     1     -21.404  80.449 118.015  0.00  0.00    +0.000 C 
ATOM      4  N2  UNL     1     -20.380  79.737 117.478  0.00  0.00    +0.000 NA
ATOM      5  C3  UNL     1     -20.274  80.252 116.236  0.00  0.00    +0.000 C 
ATOM      6  C4  UNL     1     -21.189  81.230 116.043  0.00  0.00    +0.000 C 
ATOM      7  C5  UNL     1     -21.241  81.917 114.837  0.00  0.00    +0.000 C 
ATOM      8  O1  UNL     1     -22.080  82.843 114.663  0.00  0.00    +0.000 OA
ATOM      9  N3  UNL     1     -20.348  81.566 113.849  0.00  0.00    +0.000 N 
ATOM     10  C6  UNL     1     -19.401  80.583 114.082  0.00  0.00    +0.000 C 
ATOM     11  O2  UNL     1     -18.543  80.315 113.194  0.00  0.00    +0.000 OA
ATOM     12  N4  UNL     1     -19.378  79.895 115.278  0.00  0.00    +0.000 N 
ATOM     13  C7  UNL     1     -18.363  78.867 115.543  0.00  0.00    +0.000 C 
ATOM     14  C8  UNL     1     -20.346  82.298 112.571  0.00  0.00    +0.000 C 
ENDROOT
TORSDOF 0
ENDMDL
MODEL 7
REMARK VINA RESULT:      -4.1      2.383      3.118
REMARK  Name = .\Caffeine.pdb
REMARK  3 active torsions:
REMARK  status: ('A' for Active; 'I' for Inactive)
REMARK    1  A    between atoms: C1_1  and  N1_2
REMARK    2  A    between atoms: N3_9  and  C8_14
REMARK    3  A    between atoms: N4_12  and  C7_13
REMARK                            x       y       z     vdW  Elec       q    Type
REMARK                         _______ _______ _______ _____ _____    ______ ____
ROOT
ATOM      1  C1  UNL     1     -18.359  81.841 114.823  0.00  0.00    +0.000 C 
ATOM      2  N1  UNL     1     -19.014  80.763 115.558  0.00  0.00    +0.000 N 
ATOM      3  C2  UNL     1     -18.658  79.455 115.578  0.00  0.00    +0.000 C 
ATOM      4  N2  UNL     1     -19.478  78.690 116.344  0.00  0.00    +0.000 NA
ATOM      5  C3  UNL     1     -20.373  79.584 116.812  0.00  0.00    +0.000 C 
ATOM      6  C4  UNL     1     -20.102  80.824 116.343  0.00  0.00    +0.000 C 
ATOM      7  C5  UNL     1     -20.916  81.898 116.679  0.00  0.00    +0.000 C 
ATOM      8  O1  UNL     1     -20.677  83.050 116.225  0.00  0.00    +0.000 OA
ATOM      9  N3  UNL     1     -21.991  81.665 117.508  0.00  0.00    +0.000 N 
ATOM     10  C6  UNL     1     -22.265  80.381 117.951  0.00  0.00    +0.000 C 
ATOM     11  O2  UNL     1     -23.291  80.166 118.656  0.00  0.00    +0.000 OA
ATOM     12  N4  UNL     1     -21.433  79.330 117.624  0.00  0.00    +0.000 N 
ATOM     13  C7  UNL     1     -21.728  77.962 118.069  0.00  0.00    +0.000 C 
ATOM     14  C8  UNL     1     -22.900  82.770 117.856  0.00  0.00    +0.000 C 
ENDROOT
TORSDOF 0
ENDMDL
MODEL 8
REMARK VINA RESULT:      -4.1      2.433      3.948
REMARK  Name = .\Caffeine.pdb
REMARK  3 active torsions:
REMARK  status: ('A' for Active; 'I' for Inactive)
REMARK    1  A    between atoms: C1_1  and  N1_2
REMARK    2  A    between atoms: N3_9  and  C8_14
REMARK    3  A    between atoms: N4_12  and  C7_13
REMARK                            x       y       z     vdW  Elec       q    Type
REMARK                         _______ _______ _______ _____ _____    ______ ____
ROOT
ATOM      1  C1  UNL     1     -18.287  78.836 115.532  0.00  0.00    +0.000 C 
ATOM      2  N1  UNL     1     -19.000  80.092 115.743  0.00  0.00    +0.000 N 
ATOM      3  C2  UNL     1     -18.680  81.308 115.236  0.00  0.00    +0.000 C 
ATOM      4  N2  UNL     1     -19.528  82.292 115.631  0.00  0.00    +0.000 NA
ATOM      5  C3  UNL     1     -20.407  81.634 116.414  0.00  0.00    +0.000 C 
ATOM      6  C4  UNL     1     -20.094  80.320 116.488  0.00  0.00    +0.000 C 
ATOM      7  C5  UNL     1     -20.855  79.457 117.266  0.00  0.00    +0.000 C 
ATOM      8  O1  UNL     1     -20.552  78.236 117.351  0.00  0.00    +0.000 OA
ATOM      9  N3  UNL     1     -21.937  79.974 117.944  0.00  0.00    +0.000 N 
ATOM     10  C6  UNL     1     -22.218  81.329 117.877  0.00  0.00    +0.000 C 
ATOM     11  O2  UNL     1     -23.171  81.806 118.556  0.00  0.00    +0.000 OA
ATOM     12  N4  UNL     1     -21.465  82.168 117.082  0.00  0.00    +0.000 N 
ATOM     13  C7  UNL     1     -21.741  83.609 117.023  0.00  0.00    +0.000 C 
ATOM     14  C8  UNL     1     -22.745  79.099 118.810  0.00  0.00    +0.000 C 
ENDROOT
TORSDOF 0
ENDMDL
MODEL 9
REMARK VINA RESULT:      -4.0      2.754      4.279
REMARK  Name = .\Caffeine.pdb
REMARK  3 active torsions:
REMARK  status: ('A' for Active; 'I' for Inactive)
REMARK    1  A    between atoms: C1_1  and  N1_2
REMARK    2  A    between atoms: N3_9  and  C8_14
REMARK    3  A    between atoms: N4_12  and  C7_13
REMARK                            x       y       z     vdW  Elec       q    Type
REMARK                         _______ _______ _______ _____ _____    ______ ____
ROOT
ATOM      1  C1  UNL     1     -23.551  79.853 119.025  0.00  0.00    +0.000 C 
ATOM      2  N1  UNL     1     -22.366  79.468 118.265  0.00  0.00    +0.000 N 
ATOM      3  C2  UNL     1     -21.843  78.223 118.146  0.00  0.00    +0.000 C 
ATOM      4  N2  UNL     1     -20.719  78.187 117.384  0.00  0.00    +0.000 NA
ATOM      5  C3  UNL     1     -20.560  79.476 117.022  0.00  0.00    +0.000 C 
ATOM      6  C4  UNL     1     -21.540  80.247 117.549  0.00  0.00    +0.000 C 
ATOM      7  C5  UNL     1     -21.556  81.617 117.324  0.00  0.00    +0.000 C 
ATOM      8  O1  UNL     1     -22.457  82.339 117.832  0.00  0.00    +0.000 OA
ATOM      9  N3  UNL     1     -20.559  82.161 116.545  0.00  0.00    +0.000 N 
ATOM     10  C6  UNL     1     -19.550  81.356 116.042  0.00  0.00    +0.000 C 
ATOM     11  O2  UNL     1     -18.603  81.873 115.385  0.00  0.00    +0.000 OA
ATOM     12  N4  UNL     1     -19.561  79.993 116.257  0.00  0.00    +0.000 N 
ATOM     13  C7  UNL     1     -18.484  79.134 115.748  0.00  0.00    +0.000 C 
ATOM     14  C8  UNL     1     -20.519  83.615 116.316  0.00  0.00    +0.000 C 
ENDROOT
TORSDOF 0
ENDMDL
