MODEL 1
REMARK VINA RESULT:      -3.8      0.000      0.000
REMARK  Name = .\Caffeine.pdb
REMARK  3 active torsions:
REMARK  status: ('A' for Active; 'I' for Inactive)
REMARK    1  A    between atoms: C1_1  and  N1_2
REMARK    2  A    between atoms: N3_9  and  C8_14
REMARK    3  A    between atoms: N4_12  and  C7_13
REMARK                            x       y       z     vdW  Elec       q    Type
REMARK                         _______ _______ _______ _____ _____    ______ ____
ROOT
ATOM      1  C1  UNL     1     -11.112  44.482 -30.224  0.00  0.00    +0.000 C 
ATOM      2  N1  UNL     1      -9.870  44.849 -30.897  0.00  0.00    +0.000 N 
ATOM      3  C2  UNL     1      -8.641  44.964 -30.337  0.00  0.00    +0.000 C 
ATOM      4  N2  UNL     1      -7.684  45.342 -31.223  0.00  0.00    +0.000 NA
ATOM      5  C3  UNL     1      -8.371  45.457 -32.377  0.00  0.00    +0.000 C 
ATOM      6  C4  UNL     1      -9.679  45.167 -32.188  0.00  0.00    +0.000 C 
ATOM      7  C5  UNL     1     -10.579  45.248 -33.243  0.00  0.00    +0.000 C 
ATOM      8  O1  UNL     1     -11.802  44.998 -33.062  0.00  0.00    +0.000 OA
ATOM      9  N3  UNL     1     -10.100  45.617 -34.480  0.00  0.00    +0.000 N 
ATOM     10  C6  UNL     1      -8.762  45.938 -34.642  0.00  0.00    +0.000 C 
ATOM     11  O2  UNL     1      -8.345  46.341 -35.765  0.00  0.00    +0.000 OA
ATOM     12  N4  UNL     1      -7.878  45.832 -33.588  0.00  0.00    +0.000 N 
ATOM     13  C7  UNL     1      -6.463  46.193 -33.744  0.00  0.00    +0.000 C 
ATOM     14  C8  UNL     1     -11.028  45.752 -35.615  0.00  0.00    +0.000 C 
ENDROOT
TORSDOF 0
ENDMDL
MODEL 2
REMARK VINA RESULT:      -3.7      1.297      3.348
REMARK  Name = .\Caffeine.pdb
REMARK  3 active torsions:
REMARK  status: ('A' for Active; 'I' for Inactive)
REMARK    1  A    between atoms: C1_1  and  N1_2
REMARK    2  A    between atoms: N3_9  and  C8_14
REMARK    3  A    between atoms: N4_12  and  C7_13
REMARK                            x       y       z     vdW  Elec       q    Type
REMARK                         _______ _______ _______ _____ _____    ______ ____
ROOT
ATOM      1  C1  UNL     1      -5.813  44.365 -33.406  0.00  0.00    +0.000 C 
ATOM      2  N1  UNL     1      -7.076  44.370 -32.674  0.00  0.00    +0.000 N 
ATOM      3  C2  UNL     1      -7.329  43.781 -31.479  0.00  0.00    +0.000 C 
ATOM      4  N2  UNL     1      -8.611  43.947 -31.063  0.00  0.00    +0.000 NA
ATOM      5  C3  UNL     1      -9.158  44.676 -32.057  0.00  0.00    +0.000 C 
ATOM      6  C4  UNL     1      -8.246  44.929 -33.024  0.00  0.00    +0.000 C 
ATOM      7  C5  UNL     1      -8.603  45.646 -34.159  0.00  0.00    +0.000 C 
ATOM      8  O1  UNL     1      -7.759  45.864 -35.071  0.00  0.00    +0.000 OA
ATOM      9  N3  UNL     1      -9.899  46.098 -34.262  0.00  0.00    +0.000 N 
ATOM     10  C6  UNL     1     -10.822  45.800 -33.273  0.00  0.00    +0.000 C 
ATOM     11  O2  UNL     1     -12.026  46.161 -33.408  0.00  0.00    +0.000 OA
ATOM     12  N4  UNL     1     -10.445  45.106 -32.142  0.00  0.00    +0.000 N 
ATOM     13  C7  UNL     1     -11.421  44.765 -31.099  0.00  0.00    +0.000 C 
ATOM     14  C8  UNL     1     -10.327  46.828 -35.467  0.00  0.00    +0.000 C 
ENDROOT
TORSDOF 0
ENDMDL
MODEL 3
REMARK VINA RESULT:      -3.7      2.597      3.729
REMARK  Name = .\Caffeine.pdb
REMARK  3 active torsions:
REMARK  status: ('A' for Active; 'I' for Inactive)
REMARK    1  A    between atoms: C1_1  and  N1_2
REMARK    2  A    between atoms: N3_9  and  C8_14
REMARK    3  A    between atoms: N4_12  and  C7_13
REMARK                            x       y       z     vdW  Elec       q    Type
REMARK                         _______ _______ _______ _____ _____    ______ ____
ROOT
ATOM      1  C1  UNL     1     -11.835  44.999 -35.759  0.00  0.00    +0.000 C 
ATOM      2  N1  UNL     1     -10.548  45.558 -35.355  0.00  0.00    +0.000 N 
ATOM      3  C2  UNL     1     -10.092  46.812 -35.593  0.00  0.00    +0.000 C 
ATOM      4  N2  UNL     1      -8.843  47.027 -35.106  0.00  0.00    +0.000 NA
ATOM      5  C3  UNL     1      -8.531  45.842 -34.543  0.00  0.00    +0.000 C 
ATOM      6  C4  UNL     1      -9.545  44.959 -34.692  0.00  0.00    +0.000 C 
ATOM      7  C5  UNL     1      -9.427  43.662 -34.209  0.00  0.00    +0.000 C 
ATOM      8  O1  UNL     1     -10.364  42.832 -34.366  0.00  0.00    +0.000 OA
ATOM      9  N3  UNL     1      -8.260  43.311 -33.567  0.00  0.00    +0.000 N 
ATOM     10  C6  UNL     1      -7.224  44.224 -33.454  0.00  0.00    +0.000 C 
ATOM     11  O2  UNL     1      -6.133  43.872 -32.924  0.00  0.00    +0.000 OA
ATOM     12  N4  UNL     1      -7.367  45.514 -33.921  0.00  0.00    +0.000 N 
ATOM     13  C7  UNL     1      -6.267  46.482 -33.826  0.00  0.00    +0.000 C 
ATOM     14  C8  UNL     1      -8.081  41.935 -33.075  0.00  0.00    +0.000 C 
ENDROOT
TORSDOF 0
ENDMDL
MODEL 4
REMARK VINA RESULT:      -3.6      1.754      4.533
REMARK  Name = .\Caffeine.pdb
REMARK  3 active torsions:
REMARK  status: ('A' for Active; 'I' for Inactive)
REMARK    1  A    between atoms: C1_1  and  N1_2
REMARK    2  A    between atoms: N3_9  and  C8_14
REMARK    3  A    between atoms: N4_12  and  C7_13
REMARK                            x       y       z     vdW  Elec       q    Type
REMARK                         _______ _______ _______ _____ _____    ______ ____
ROOT
ATOM      1  C1  UNL     1      -6.566  46.134 -34.008  0.00  0.00    +0.000 C 
ATOM      2  N1  UNL     1      -8.022  46.062 -34.084  0.00  0.00    +0.000 N 
ATOM      3  C2  UNL     1      -8.804  46.443 -35.124  0.00  0.00    +0.000 C 
ATOM      4  N2  UNL     1     -10.130  46.270 -34.886  0.00  0.00    +0.000 NA
ATOM      5  C3  UNL     1     -10.147  45.755 -33.640  0.00  0.00    +0.000 C 
ATOM      6  C4  UNL     1      -8.890  45.631 -33.154  0.00  0.00    +0.000 C 
ATOM      7  C5  UNL     1      -8.674  45.144 -31.872  0.00  0.00    +0.000 C 
ATOM      8  O1  UNL     1      -7.504  45.048 -31.411  0.00  0.00    +0.000 OA
ATOM      9  N3  UNL     1      -9.770  44.781 -31.121  0.00  0.00    +0.000 N 
ATOM     10  C6  UNL     1     -11.049  44.944 -31.629  0.00  0.00    +0.000 C 
ATOM     11  O2  UNL     1     -12.050  44.672 -30.908  0.00  0.00    +0.000 OA
ATOM     12  N4  UNL     1     -11.243  45.410 -32.913  0.00  0.00    +0.000 N 
ATOM     13  C7  UNL     1     -12.595  45.609 -33.452  0.00  0.00    +0.000 C 
ATOM     14  C8  UNL     1      -9.585  44.296 -29.743  0.00  0.00    +0.000 C 
ENDROOT
TORSDOF 0
ENDMDL
MODEL 5
REMARK VINA RESULT:      -3.6      1.922      4.157
REMARK  Name = .\Caffeine.pdb
REMARK  3 active torsions:
REMARK  status: ('A' for Active; 'I' for Inactive)
REMARK    1  A    between atoms: C1_1  and  N1_2
REMARK    2  A    between atoms: N3_9  and  C8_14
REMARK    3  A    between atoms: N4_12  and  C7_13
REMARK                            x       y       z     vdW  Elec       q    Type
REMARK                         _______ _______ _______ _____ _____    ______ ____
ROOT
ATOM      1  C1  UNL     1     -10.287  47.095 -35.485  0.00  0.00    +0.000 C 
ATOM      2  N1  UNL     1     -10.448  46.316 -34.262  0.00  0.00    +0.000 N 
ATOM      3  C2  UNL     1     -11.570  46.201 -33.509  0.00  0.00    +0.000 C 
ATOM      4  N2  UNL     1     -11.400  45.417 -32.414  0.00  0.00    +0.000 NA
ATOM      5  C3  UNL     1     -10.110  45.037 -32.513  0.00  0.00    +0.000 C 
ATOM      6  C4  UNL     1      -9.535  45.574 -33.614  0.00  0.00    +0.000 C 
ATOM      7  C5  UNL     1      -8.197  45.334 -33.898  0.00  0.00    +0.000 C 
ATOM      8  O1  UNL     1      -7.655  45.851 -34.913  0.00  0.00    +0.000 OA
ATOM      9  N3  UNL     1      -7.484  44.529 -33.039  0.00  0.00    +0.000 N 
ATOM     10  C6  UNL     1      -8.086  44.015 -31.902  0.00  0.00    +0.000 C 
ATOM     11  O2  UNL     1      -7.406  43.333 -31.085  0.00  0.00    +0.000 OA
ATOM     12  N4  UNL     1      -9.422  44.246 -31.646  0.00  0.00    +0.000 N 
ATOM     13  C7  UNL     1     -10.064  43.726 -30.432  0.00  0.00    +0.000 C 
ATOM     14  C8  UNL     1      -6.053  44.282 -33.285  0.00  0.00    +0.000 C 
ENDROOT
TORSDOF 0
ENDMDL
MODEL 6
REMARK VINA RESULT:      -3.6      1.521      3.085
REMARK  Name = .\Caffeine.pdb
REMARK  3 active torsions:
REMARK  status: ('A' for Active; 'I' for Inactive)
REMARK    1  A    between atoms: C1_1  and  N1_2
REMARK    2  A    between atoms: N3_9  and  C8_14
REMARK    3  A    between atoms: N4_12  and  C7_13
REMARK                            x       y       z     vdW  Elec       q    Type
REMARK                         _______ _______ _______ _____ _____    ______ ____
ROOT
ATOM      1  C1  UNL     1     -11.049  44.733 -29.861  0.00  0.00    +0.000 C 
ATOM      2  N1  UNL     1     -11.264  45.057 -31.268  0.00  0.00    +0.000 N 
ATOM      3  C2  UNL     1     -12.455  45.172 -31.906  0.00  0.00    +0.000 C 
ATOM      4  N2  UNL     1     -12.327  45.466 -33.226  0.00  0.00    +0.000 NA
ATOM      5  C3  UNL     1     -10.990  45.535 -33.390  0.00  0.00    +0.000 C 
ATOM      6  C4  UNL     1     -10.350  45.289 -32.224  0.00  0.00    +0.000 C 
ATOM      7  C5  UNL     1      -8.962  45.283 -32.170  0.00  0.00    +0.000 C 
ATOM      8  O1  UNL     1      -8.365  45.033 -31.087  0.00  0.00    +0.000 OA
ATOM      9  N3  UNL     1      -8.265  45.547 -33.327  0.00  0.00    +0.000 N 
ATOM     10  C6  UNL     1      -8.943  45.767 -34.515  0.00  0.00    +0.000 C 
ATOM     11  O2  UNL     1      -8.294  45.941 -35.585  0.00  0.00    +0.000 OA
ATOM     12  N4  UNL     1     -10.322  45.789 -34.547  0.00  0.00    +0.000 N 
ATOM     13  C7  UNL     1     -11.049  45.998 -35.805  0.00  0.00    +0.000 C 
ATOM     14  C8  UNL     1      -6.793  45.512 -33.319  0.00  0.00    +0.000 C 
ENDROOT
TORSDOF 0
ENDMDL
MODEL 7
REMARK VINA RESULT:      -3.5      1.752      3.091
REMARK  Name = .\Caffeine.pdb
REMARK  3 active torsions:
REMARK  status: ('A' for Active; 'I' for Inactive)
REMARK    1  A    between atoms: C1_1  and  N1_2
REMARK    2  A    between atoms: N3_9  and  C8_14
REMARK    3  A    between atoms: N4_12  and  C7_13
REMARK                            x       y       z     vdW  Elec       q    Type
REMARK                         _______ _______ _______ _____ _____    ______ ____
ROOT
ATOM      1  C1  UNL     1      -6.592  43.089 -31.281  0.00  0.00    +0.000 C 
ATOM      2  N1  UNL     1      -7.038  43.966 -32.359  0.00  0.00    +0.000 N 
ATOM      3  C2  UNL     1      -6.280  44.483 -33.357  0.00  0.00    +0.000 C 
ATOM      4  N2  UNL     1      -6.982  45.282 -34.201  0.00  0.00    +0.000 NA
ATOM      5  C3  UNL     1      -8.228  45.241 -33.688  0.00  0.00    +0.000 C 
ATOM      6  C4  UNL     1      -8.267  44.459 -32.585  0.00  0.00    +0.000 C 
ATOM      7  C5  UNL     1      -9.451  44.296 -31.878  0.00  0.00    +0.000 C 
ATOM      8  O1  UNL     1      -9.483  43.583 -30.837  0.00  0.00    +0.000 OA
ATOM      9  N3  UNL     1     -10.578  44.939 -32.339  0.00  0.00    +0.000 N 
ATOM     10  C6  UNL     1     -10.506  45.759 -33.453  0.00  0.00    +0.000 C 
ATOM     11  O2  UNL     1     -11.529  46.400 -33.828  0.00  0.00    +0.000 OA
ATOM     12  N4  UNL     1      -9.326  45.893 -34.155  0.00  0.00    +0.000 N 
ATOM     13  C7  UNL     1      -9.234  46.778 -35.324  0.00  0.00    +0.000 C 
ATOM     14  C8  UNL     1     -11.843  44.823 -31.595  0.00  0.00    +0.000 C 
ENDROOT
TORSDOF 0
ENDMDL
MODEL 8
REMARK VINA RESULT:      -3.5      2.085      3.684
REMARK  Name = .\Caffeine.pdb
REMARK  3 active torsions:
REMARK  status: ('A' for Active; 'I' for Inactive)
REMARK    1  A    between atoms: C1_1  and  N1_2
REMARK    2  A    between atoms: N3_9  and  C8_14
REMARK    3  A    between atoms: N4_12  and  C7_13
REMARK                            x       y       z     vdW  Elec       q    Type
REMARK                         _______ _______ _______ _____ _____    ______ ____
ROOT
ATOM      1  C1  UNL     1     -11.249  46.506 -34.194  0.00  0.00    +0.000 C 
ATOM      2  N1  UNL     1      -9.854  46.077 -34.194  0.00  0.00    +0.000 N 
ATOM      3  C2  UNL     1      -8.934  46.296 -35.165  0.00  0.00    +0.000 C 
ATOM      4  N2  UNL     1      -7.721  45.754 -34.882  0.00  0.00    +0.000 NA
ATOM      5  C3  UNL     1      -7.920  45.183 -33.677  0.00  0.00    +0.000 C 
ATOM      6  C4  UNL     1      -9.195  45.370 -33.262  0.00  0.00    +0.000 C 
ATOM      7  C5  UNL     1      -9.627  44.841 -32.054  0.00  0.00    +0.000 C 
ATOM      8  O1  UNL     1     -10.821  44.997 -31.676  0.00  0.00    +0.000 OA
ATOM      9  N3  UNL     1      -8.723  44.136 -31.291  0.00  0.00    +0.000 N 
ATOM     10  C6  UNL     1      -7.432  43.932 -31.751  0.00  0.00    +0.000 C 
ATOM     11  O2  UNL     1      -6.630  43.227 -31.076  0.00  0.00    +0.000 OA
ATOM     12  N4  UNL     1      -7.013  44.483 -32.944  0.00  0.00    +0.000 N 
ATOM     13  C7  UNL     1      -5.654  44.253 -33.451  0.00  0.00    +0.000 C 
ATOM     14  C8  UNL     1      -9.154  43.526 -30.022  0.00  0.00    +0.000 C 
ENDROOT
TORSDOF 0
ENDMDL
MODEL 9
REMARK VINA RESULT:      -3.4      2.624      3.394
REMARK  Name = .\Caffeine.pdb
REMARK  3 active torsions:
REMARK  status: ('A' for Active; 'I' for Inactive)
REMARK    1  A    between atoms: C1_1  and  N1_2
REMARK    2  A    between atoms: N3_9  and  C8_14
REMARK    3  A    between atoms: N4_12  and  C7_13
REMARK                            x       y       z     vdW  Elec       q    Type
REMARK                         _______ _______ _______ _____ _____    ______ ____
ROOT
ATOM      1  C1  UNL     1      -6.284  43.311 -32.889  0.00  0.00    +0.000 C 
ATOM      2  N1  UNL     1      -7.005  44.423 -33.500  0.00  0.00    +0.000 N 
ATOM      3  C2  UNL     1      -6.603  45.716 -33.571  0.00  0.00    +0.000 C 
ATOM      4  N2  UNL     1      -7.505  46.522 -34.187  0.00  0.00    +0.000 NA
ATOM      5  C3  UNL     1      -8.501  45.671 -34.507  0.00  0.00    +0.000 C 
ATOM      6  C4  UNL     1      -8.209  44.415 -34.096  0.00  0.00    +0.000 C 
ATOM      7  C5  UNL     1      -9.111  43.379 -34.300  0.00  0.00    +0.000 C 
ATOM      8  O1  UNL     1      -8.848  42.213 -33.898  0.00  0.00    +0.000 OA
ATOM      9  N3  UNL     1     -10.296  43.665 -34.940  0.00  0.00    +0.000 N 
ATOM     10  C6  UNL     1     -10.585  44.964 -35.324  0.00  0.00    +0.000 C 
ATOM     11  O2  UNL     1     -11.704  45.229 -35.850  0.00  0.00    +0.000 OA
ATOM     12  N4  UNL     1      -9.669  45.977 -35.133  0.00  0.00    +0.000 N 
ATOM     13  C7  UNL     1      -9.975  47.362 -35.515  0.00  0.00    +0.000 C 
ATOM     14  C8  UNL     1     -11.295  42.602 -35.141  0.00  0.00    +0.000 C 
ENDROOT
TORSDOF 0
ENDMDL
