MODEL 1
REMARK VINA RESULT:      -4.5      0.000      0.000
REMARK  Name = .\Caffeine.pdb
REMARK  3 active torsions:
REMARK  status: ('A' for Active; 'I' for Inactive)
REMARK    1  A    between atoms: C1_1  and  N1_2
REMARK    2  A    between atoms: N3_9  and  C8_14
REMARK    3  A    between atoms: N4_12  and  C7_13
REMARK                            x       y       z     vdW  Elec       q    Type
REMARK                         _______ _______ _______ _____ _____    ______ ____
ROOT
ATOM      1  C1  UNL     1       3.951  67.806 135.447  0.00  0.00    +0.000 C 
ATOM      2  N1  UNL     1       2.774  68.083 134.629  0.00  0.00    +0.000 N 
ATOM      3  C2  UNL     1       1.606  67.394 134.619  0.00  0.00    +0.000 C 
ATOM      4  N2  UNL     1       0.704  67.887 133.732  0.00  0.00    +0.000 NA
ATOM      5  C3  UNL     1       1.361  68.928 133.181  0.00  0.00    +0.000 C 
ATOM      6  C4  UNL     1       2.600  69.049 133.711  0.00  0.00    +0.000 C 
ATOM      7  C5  UNL     1       3.462  70.043 133.269  0.00  0.00    +0.000 C 
ATOM      8  O1  UNL     1       4.625  70.142 133.748  0.00  0.00    +0.000 OA
ATOM      9  N3  UNL     1       3.016  70.904 132.291  0.00  0.00    +0.000 N 
ATOM     10  C6  UNL     1       1.754  70.742 131.743  0.00  0.00    +0.000 C 
ATOM     11  O2  UNL     1       1.379  71.494 130.799  0.00  0.00    +0.000 OA
ATOM     12  N4  UNL     1       0.903  69.762 132.209  0.00  0.00    +0.000 N 
ATOM     13  C7  UNL     1      -0.428  69.567 131.618  0.00  0.00    +0.000 C 
ATOM     14  C8  UNL     1       3.914  71.947 131.768  0.00  0.00    +0.000 C 
ENDROOT
TORSDOF 0
ENDMDL
MODEL 2
REMARK VINA RESULT:      -4.4      1.716      3.906
REMARK  Name = .\Caffeine.pdb
REMARK  3 active torsions:
REMARK  status: ('A' for Active; 'I' for Inactive)
REMARK    1  A    between atoms: C1_1  and  N1_2
REMARK    2  A    between atoms: N3_9  and  C8_14
REMARK    3  A    between atoms: N4_12  and  C7_13
REMARK                            x       y       z     vdW  Elec       q    Type
REMARK                         _______ _______ _______ _____ _____    ______ ____
ROOT
ATOM      1  C1  UNL     1       4.806  71.890 131.432  0.00  0.00    +0.000 C 
ATOM      2  N1  UNL     1       4.527  70.820 132.386  0.00  0.00    +0.000 N 
ATOM      3  C2  UNL     1       5.410  70.225 133.226  0.00  0.00    +0.000 C 
ATOM      4  N2  UNL     1       4.850  69.246 133.981  0.00  0.00    +0.000 NA
ATOM      5  C3  UNL     1       3.563  69.252 133.578  0.00  0.00    +0.000 C 
ATOM      6  C4  UNL     1       3.365  70.190 132.622  0.00  0.00    +0.000 C 
ATOM      7  C5  UNL     1       2.113  70.352 132.043  0.00  0.00    +0.000 C 
ATOM      8  O1  UNL     1       1.933  71.211 131.137  0.00  0.00    +0.000 OA
ATOM      9  N3  UNL     1       1.085  69.546 132.479  0.00  0.00    +0.000 N 
ATOM     10  C6  UNL     1       1.320  68.573 133.437  0.00  0.00    +0.000 C 
ATOM     11  O2  UNL     1       0.388  67.793 133.781  0.00  0.00    +0.000 OA
ATOM     12  N4  UNL     1       2.565  68.440 134.016  0.00  0.00    +0.000 N 
ATOM     13  C7  UNL     1       2.830  67.397 135.016  0.00  0.00    +0.000 C 
ATOM     14  C8  UNL     1      -0.247  69.661 131.863  0.00  0.00    +0.000 C 
ENDROOT
TORSDOF 0
ENDMDL
MODEL 3
REMARK VINA RESULT:      -4.3      1.612      3.674
REMARK  Name = .\Caffeine.pdb
REMARK  3 active torsions:
REMARK  status: ('A' for Active; 'I' for Inactive)
REMARK    1  A    between atoms: C1_1  and  N1_2
REMARK    2  A    between atoms: N3_9  and  C8_14
REMARK    3  A    between atoms: N4_12  and  C7_13
REMARK                            x       y       z     vdW  Elec       q    Type
REMARK                         _______ _______ _______ _____ _____    ______ ____
ROOT
ATOM      1  C1  UNL     1       1.430  72.236 131.895  0.00  0.00    +0.000 C 
ATOM      2  N1  UNL     1       1.167  70.889 132.392  0.00  0.00    +0.000 N 
ATOM      3  C2  UNL     1       0.031  70.167 132.229  0.00  0.00    +0.000 C 
ATOM      4  N2  UNL     1       0.083  68.949 132.827  0.00  0.00    +0.000 NA
ATOM      5  C3  UNL     1       1.315  68.935 133.375  0.00  0.00    +0.000 C 
ATOM      6  C4  UNL     1       1.967  70.094 133.121  0.00  0.00    +0.000 C 
ATOM      7  C5  UNL     1       3.247  70.306 133.616  0.00  0.00    +0.000 C 
ATOM      8  O1  UNL     1       3.846  71.394 133.397  0.00  0.00    +0.000 OA
ATOM      9  N3  UNL     1       3.832  69.303 134.356  0.00  0.00    +0.000 N 
ATOM     10  C6  UNL     1       3.134  68.138 134.628  0.00  0.00    +0.000 C 
ATOM     11  O2  UNL     1       3.653  67.252 135.364  0.00  0.00    +0.000 OA
ATOM     12  N4  UNL     1       1.871  67.935 134.110  0.00  0.00    +0.000 N 
ATOM     13  C7  UNL     1       1.113  66.714 134.412  0.00  0.00    +0.000 C 
ATOM     14  C8  UNL     1       5.173  69.505 134.931  0.00  0.00    +0.000 C 
ENDROOT
TORSDOF 0
ENDMDL
MODEL 4
REMARK VINA RESULT:      -4.2      1.768      3.477
REMARK  Name = .\Caffeine.pdb
REMARK  3 active torsions:
REMARK  status: ('A' for Active; 'I' for Inactive)
REMARK    1  A    between atoms: C1_1  and  N1_2
REMARK    2  A    between atoms: N3_9  and  C8_14
REMARK    3  A    between atoms: N4_12  and  C7_13
REMARK                            x       y       z     vdW  Elec       q    Type
REMARK                         _______ _______ _______ _____ _____    ______ ____
ROOT
ATOM      1  C1  UNL     1       6.211  70.059 132.749  0.00  0.00    +0.000 C 
ATOM      2  N1  UNL     1       4.843  70.149 132.248  0.00  0.00    +0.000 N 
ATOM      3  C2  UNL     1       4.420  70.809 131.142  0.00  0.00    +0.000 C 
ATOM      4  N2  UNL     1       3.079  70.722 130.950  0.00  0.00    +0.000 NA
ATOM      5  C3  UNL     1       2.673  69.969 131.992  0.00  0.00    +0.000 C 
ATOM      6  C4  UNL     1       3.723  69.625 132.773  0.00  0.00    +0.000 C 
ATOM      7  C5  UNL     1       3.529  68.868 133.921  0.00  0.00    +0.000 C 
ATOM      8  O1  UNL     1       4.505  68.566 134.661  0.00  0.00    +0.000 OA
ATOM      9  N3  UNL     1       2.248  68.469 134.229  0.00  0.00    +0.000 N 
ATOM     10  C6  UNL     1       1.185  68.859 133.430  0.00  0.00    +0.000 C 
ATOM     11  O2  UNL     1       0.006  68.546 133.757  0.00  0.00    +0.000 OA
ATOM     12  N4  UNL     1       1.398  69.593 132.281  0.00  0.00    +0.000 N 
ATOM     13  C7  UNL     1       0.277  70.031 131.440  0.00  0.00    +0.000 C 
ATOM     14  C8  UNL     1       1.996  67.698 135.458  0.00  0.00    +0.000 C 
ENDROOT
TORSDOF 0
ENDMDL
MODEL 5
REMARK VINA RESULT:      -4.2      1.856      2.618
REMARK  Name = .\Caffeine.pdb
REMARK  3 active torsions:
REMARK  status: ('A' for Active; 'I' for Inactive)
REMARK    1  A    between atoms: C1_1  and  N1_2
REMARK    2  A    between atoms: N3_9  and  C8_14
REMARK    3  A    between atoms: N4_12  and  C7_13
REMARK                            x       y       z     vdW  Elec       q    Type
REMARK                         _______ _______ _______ _____ _____    ______ ____
ROOT
ATOM      1  C1  UNL     1       0.732  67.893 134.783  0.00  0.00    +0.000 C 
ATOM      2  N1  UNL     1       0.690  69.234 134.210  0.00  0.00    +0.000 N 
ATOM      3  C2  UNL     1      -0.402  70.025 134.063  0.00  0.00    +0.000 C 
ATOM      4  N2  UNL     1      -0.122  71.217 133.475  0.00  0.00    +0.000 NA
ATOM      5  C3  UNL     1       1.207  71.141 133.260  0.00  0.00    +0.000 C 
ATOM      6  C4  UNL     1       1.697  69.957 133.694  0.00  0.00    +0.000 C 
ATOM      7  C5  UNL     1       3.044  69.656 133.546  0.00  0.00    +0.000 C 
ATOM      8  O1  UNL     1       3.498  68.544 133.932  0.00  0.00    +0.000 OA
ATOM      9  N3  UNL     1       3.862  70.597 132.961  0.00  0.00    +0.000 N 
ATOM     10  C6  UNL     1       3.331  71.790 132.497  0.00  0.00    +0.000 C 
ATOM     11  O2  UNL     1       4.075  72.618 131.901  0.00  0.00    +0.000 OA
ATOM     12  N4  UNL     1       1.993  72.082 132.671  0.00  0.00    +0.000 N 
ATOM     13  C7  UNL     1       1.417  73.333 132.162  0.00  0.00    +0.000 C 
ATOM     14  C8  UNL     1       5.288  70.300 132.752  0.00  0.00    +0.000 C 
ENDROOT
TORSDOF 0
ENDMDL
MODEL 6
REMARK VINA RESULT:      -4.1      1.809      4.804
REMARK  Name = .\Caffeine.pdb
REMARK  3 active torsions:
REMARK  status: ('A' for Active; 'I' for Inactive)
REMARK    1  A    between atoms: C1_1  and  N1_2
REMARK    2  A    between atoms: N3_9  and  C8_14
REMARK    3  A    between atoms: N4_12  and  C7_13
REMARK                            x       y       z     vdW  Elec       q    Type
REMARK                         _______ _______ _______ _____ _____    ______ ____
ROOT
ATOM      1  C1  UNL     1       1.058  71.176 131.613  0.00  0.00    +0.000 C 
ATOM      2  N1  UNL     1       2.204  70.813 132.441  0.00  0.00    +0.000 N 
ATOM      3  C2  UNL     1       3.372  71.491 132.559  0.00  0.00    +0.000 C 
ATOM      4  N2  UNL     1       4.256  70.889 133.395  0.00  0.00    +0.000 NA
ATOM      5  C3  UNL     1       3.585  69.794 133.805  0.00  0.00    +0.000 C 
ATOM      6  C4  UNL     1       2.359  69.741 133.235  0.00  0.00    +0.000 C 
ATOM      7  C5  UNL     1       1.504  68.679 133.498  0.00  0.00    +0.000 C 
ATOM      8  O1  UNL     1       0.369  68.619 132.950  0.00  0.00    +0.000 OA
ATOM      9  N3  UNL     1       1.935  67.695 134.360  0.00  0.00    +0.000 N 
ATOM     10  C6  UNL     1       3.206  67.755 134.907  0.00  0.00    +0.000 C 
ATOM     11  O2  UNL     1       3.618  66.814 135.642  0.00  0.00    +0.000 OA
ATOM     12  N4  UNL     1       4.034  68.829 134.652  0.00  0.00    +0.000 N 
ATOM     13  C7  UNL     1       5.392  68.891 135.208  0.00  0.00    +0.000 C 
ATOM     14  C8  UNL     1       1.074  66.533 134.633  0.00  0.00    +0.000 C 
ENDROOT
TORSDOF 0
ENDMDL
MODEL 7
REMARK VINA RESULT:      -4.0      2.584      3.074
REMARK  Name = .\Caffeine.pdb
REMARK  3 active torsions:
REMARK  status: ('A' for Active; 'I' for Inactive)
REMARK    1  A    between atoms: C1_1  and  N1_2
REMARK    2  A    between atoms: N3_9  and  C8_14
REMARK    3  A    between atoms: N4_12  and  C7_13
REMARK                            x       y       z     vdW  Elec       q    Type
REMARK                         _______ _______ _______ _____ _____    ______ ____
ROOT
ATOM      1  C1  UNL     1       6.264  69.932 134.002  0.00  0.00    +0.000 C 
ATOM      2  N1  UNL     1       5.160  70.056 133.056  0.00  0.00    +0.000 N 
ATOM      3  C2  UNL     1       5.138  69.634 131.767  0.00  0.00    +0.000 C 
ATOM      4  N2  UNL     1       3.968  69.910 131.135  0.00  0.00    +0.000 NA
ATOM      5  C3  UNL     1       3.248  70.529 132.093  0.00  0.00    +0.000 C 
ATOM      6  C4  UNL     1       3.956  70.621 133.242  0.00  0.00    +0.000 C 
ATOM      7  C5  UNL     1       3.413  71.248 134.356  0.00  0.00    +0.000 C 
ATOM      8  O1  UNL     1       4.081  71.354 135.421  0.00  0.00    +0.000 OA
ATOM      9  N3  UNL     1       2.137  71.757 134.259  0.00  0.00    +0.000 N 
ATOM     10  C6  UNL     1       1.443  71.676 133.062  0.00  0.00    +0.000 C 
ATOM     11  O2  UNL     1       0.300  72.205 132.963  0.00  0.00    +0.000 OA
ATOM     12  N4  UNL     1       1.990  71.031 131.972  0.00  0.00    +0.000 N 
ATOM     13  C7  UNL     1       1.272  70.961 130.693  0.00  0.00    +0.000 C 
ATOM     14  C8  UNL     1       1.541  72.463 135.405  0.00  0.00    +0.000 C 
ENDROOT
TORSDOF 0
ENDMDL
MODEL 8
REMARK VINA RESULT:      -4.0      2.624      4.066
REMARK  Name = .\Caffeine.pdb
REMARK  3 active torsions:
REMARK  status: ('A' for Active; 'I' for Inactive)
REMARK    1  A    between atoms: C1_1  and  N1_2
REMARK    2  A    between atoms: N3_9  and  C8_14
REMARK    3  A    between atoms: N4_12  and  C7_13
REMARK                            x       y       z     vdW  Elec       q    Type
REMARK                         _______ _______ _______ _____ _____    ______ ____
ROOT
ATOM      1  C1  UNL     1       0.718  73.245 135.753  0.00  0.00    +0.000 C 
ATOM      2  N1  UNL     1       1.882  72.439 135.400  0.00  0.00    +0.000 N 
ATOM      3  C2  UNL     1       2.989  72.229 136.155  0.00  0.00    +0.000 C 
ATOM      4  N2  UNL     1       3.912  71.445 135.542  0.00  0.00    +0.000 NA
ATOM      5  C3  UNL     1       3.331  71.166 134.358  0.00  0.00    +0.000 C 
ATOM      6  C4  UNL     1       2.119  71.760 134.266  0.00  0.00    +0.000 C 
ATOM      7  C5  UNL     1       1.354  71.627 133.115  0.00  0.00    +0.000 C 
ATOM      8  O1  UNL     1       0.233  72.198 133.020  0.00  0.00    +0.000 OA
ATOM      9  N3  UNL     1       1.858  70.866 132.083  0.00  0.00    +0.000 N 
ATOM     10  C6  UNL     1       3.114  70.293 132.189  0.00  0.00    +0.000 C 
ATOM     11  O2  UNL     1       3.597  69.654 131.212  0.00  0.00    +0.000 OA
ATOM     12  N4  UNL     1       3.852  70.418 133.348  0.00  0.00    +0.000 N 
ATOM     13  C7  UNL     1       5.194  69.833 133.462  0.00  0.00    +0.000 C 
ATOM     14  C8  UNL     1       1.094  70.733 130.831  0.00  0.00    +0.000 C 
ENDROOT
TORSDOF 0
ENDMDL
MODEL 9
REMARK VINA RESULT:      -4.0      1.395      1.435
REMARK  Name = .\Caffeine.pdb
REMARK  3 active torsions:
REMARK  status: ('A' for Active; 'I' for Inactive)
REMARK    1  A    between atoms: C1_1  and  N1_2
REMARK    2  A    between atoms: N3_9  and  C8_14
REMARK    3  A    between atoms: N4_12  and  C7_13
REMARK                            x       y       z     vdW  Elec       q    Type
REMARK                         _______ _______ _______ _____ _____    ______ ____
ROOT
ATOM      1  C1  UNL     1       2.682  67.348 136.285  0.00  0.00    +0.000 C 
ATOM      2  N1  UNL     1       2.001  67.985 135.162  0.00  0.00    +0.000 N 
ATOM      3  C2  UNL     1       0.670  67.978 134.904  0.00  0.00    +0.000 C 
ATOM      4  N2  UNL     1       0.343  68.647 133.768  0.00  0.00    +0.000 NA
ATOM      5  C3  UNL     1       1.539  69.081 133.320  0.00  0.00    +0.000 C 
ATOM      6  C4  UNL     1       2.534  68.686 134.147  0.00  0.00    +0.000 C 
ATOM      7  C5  UNL     1       3.855  69.003 133.862  0.00  0.00    +0.000 C 
ATOM      8  O1  UNL     1       4.785  68.617 134.621  0.00  0.00    +0.000 OA
ATOM      9  N3  UNL     1       4.117  69.737 132.727  0.00  0.00    +0.000 N 
ATOM     10  C6  UNL     1       3.085  70.105 131.880  0.00  0.00    +0.000 C 
ATOM     11  O2  UNL     1       3.342  70.719 130.806  0.00  0.00    +0.000 OA
ATOM     12  N4  UNL     1       1.775  69.799 132.190  0.00  0.00    +0.000 N 
ATOM     13  C7  UNL     1       0.676  70.164 131.287  0.00  0.00    +0.000 C 
ATOM     14  C8  UNL     1       5.509  70.060 132.369  0.00  0.00    +0.000 C 
ENDROOT
TORSDOF 0
ENDMDL
