MODEL 1
REMARK VINA RESULT:      -2.3      0.000      0.000
REMARK  Name = .\Caffeine.pdb
REMARK  3 active torsions:
REMARK  status: ('A' for Active; 'I' for Inactive)
REMARK    1  A    between atoms: C1_1  and  N1_2
REMARK    2  A    between atoms: N3_9  and  C8_14
REMARK    3  A    between atoms: N4_12  and  C7_13
REMARK                            x       y       z     vdW  Elec       q    Type
REMARK                         _______ _______ _______ _____ _____    ______ ____
ROOT
ATOM      1  C1  UNL     1       4.649  51.439 -51.011  0.00  0.00    +0.000 C 
ATOM      2  N1  UNL     1       5.183  51.734 -49.685  0.00  0.00    +0.000 N 
ATOM      3  C2  UNL     1       6.253  52.514 -49.391  0.00  0.00    +0.000 C 
ATOM      4  N2  UNL     1       6.514  52.581 -48.060  0.00  0.00    +0.000 NA
ATOM      5  C3  UNL     1       5.551  51.804 -47.525  0.00  0.00    +0.000 C 
ATOM      6  C4  UNL     1       4.754  51.293 -48.491  0.00  0.00    +0.000 C 
ATOM      7  C5  UNL     1       3.708  50.441 -48.164  0.00  0.00    +0.000 C 
ATOM      8  O1  UNL     1       2.977  49.947 -49.066  0.00  0.00    +0.000 OA
ATOM      9  N3  UNL     1       3.500  50.145 -46.835  0.00  0.00    +0.000 N 
ATOM     10  C6  UNL     1       4.348  50.657 -45.866  0.00  0.00    +0.000 C 
ATOM     11  O2  UNL     1       4.192  50.326 -44.657  0.00  0.00    +0.000 OA
ATOM     12  N4  UNL     1       5.370  51.519 -46.207  0.00  0.00    +0.000 N 
ATOM     13  C7  UNL     1       6.289  52.048 -45.191  0.00  0.00    +0.000 C 
ATOM     14  C8  UNL     1       2.426  49.215 -46.451  0.00  0.00    +0.000 C 
ENDROOT
TORSDOF 0
ENDMDL
MODEL 2
REMARK VINA RESULT:      -1.5      1.561      3.617
REMARK  Name = .\Caffeine.pdb
REMARK  3 active torsions:
REMARK  status: ('A' for Active; 'I' for Inactive)
REMARK    1  A    between atoms: C1_1  and  N1_2
REMARK    2  A    between atoms: N3_9  and  C8_14
REMARK    3  A    between atoms: N4_12  and  C7_13
REMARK                            x       y       z     vdW  Elec       q    Type
REMARK                         _______ _______ _______ _____ _____    ______ ____
ROOT
ATOM      1  C1  UNL     1       2.000  48.852 -46.891  0.00  0.00    +0.000 C 
ATOM      2  N1  UNL     1       3.074  49.738 -46.457  0.00  0.00    +0.000 N 
ATOM      3  C2  UNL     1       3.466  49.983 -45.182  0.00  0.00    +0.000 C 
ATOM      4  N2  UNL     1       4.487  50.874 -45.099  0.00  0.00    +0.000 NA
ATOM      5  C3  UNL     1       4.725  51.180 -46.391  0.00  0.00    +0.000 C 
ATOM      6  C4  UNL     1       3.881  50.507 -47.207  0.00  0.00    +0.000 C 
ATOM      7  C5  UNL     1       3.933  50.693 -48.582  0.00  0.00    +0.000 C 
ATOM      8  O1  UNL     1       3.133  50.081 -49.341  0.00  0.00    +0.000 OA
ATOM      9  N3  UNL     1       4.871  51.566 -49.086  0.00  0.00    +0.000 N 
ATOM     10  C6  UNL     1       5.704  52.266 -48.228  0.00  0.00    +0.000 C 
ATOM     11  O2  UNL     1       6.514  53.116 -48.694  0.00  0.00    +0.000 OA
ATOM     12  N4  UNL     1       5.653  52.054 -46.866  0.00  0.00    +0.000 N 
ATOM     13  C7  UNL     1       6.514  52.808 -45.946  0.00  0.00    +0.000 C 
ATOM     14  C8  UNL     1       4.932  51.819 -50.535  0.00  0.00    +0.000 C 
ENDROOT
TORSDOF 0
ENDMDL
MODEL 3
REMARK VINA RESULT:      -1.4      1.472      3.011
REMARK  Name = .\Caffeine.pdb
REMARK  3 active torsions:
REMARK  status: ('A' for Active; 'I' for Inactive)
REMARK    1  A    between atoms: C1_1  and  N1_2
REMARK    2  A    between atoms: N3_9  and  C8_14
REMARK    3  A    between atoms: N4_12  and  C7_13
REMARK                            x       y       z     vdW  Elec       q    Type
REMARK                         _______ _______ _______ _____ _____    ______ ____
ROOT
ATOM      1  C1  UNL     1       5.469  51.898 -50.848  0.00  0.00    +0.000 C 
ATOM      2  N1  UNL     1       4.653  51.146 -49.899  0.00  0.00    +0.000 N 
ATOM      3  C2  UNL     1       3.600  50.341 -50.187  0.00  0.00    +0.000 C 
ATOM      4  N2  UNL     1       3.031  49.793 -49.083  0.00  0.00    +0.000 NA
ATOM      5  C3  UNL     1       3.780  50.291 -48.079  0.00  0.00    +0.000 C 
ATOM      6  C4  UNL     1       4.749  51.103 -48.560  0.00  0.00    +0.000 C 
ATOM      7  C5  UNL     1       5.624  51.747 -47.695  0.00  0.00    +0.000 C 
ATOM      8  O1  UNL     1       6.514  52.520 -48.142  0.00  0.00    +0.000 OA
ATOM      9  N3  UNL     1       5.484  51.524 -46.343  0.00  0.00    +0.000 N 
ATOM     10  C6  UNL     1       4.465  50.712 -45.873  0.00  0.00    +0.000 C 
ATOM     11  O2  UNL     1       4.301  50.568 -44.628  0.00  0.00    +0.000 OA
ATOM     12  N4  UNL     1       3.618  50.064 -46.748  0.00  0.00    +0.000 N 
ATOM     13  C7  UNL     1       2.520  49.220 -46.258  0.00  0.00    +0.000 C 
ATOM     14  C8  UNL     1       6.367  52.218 -45.391  0.00  0.00    +0.000 C 
ENDROOT
TORSDOF 0
ENDMDL
MODEL 4
REMARK VINA RESULT:      -0.2      1.609      4.199
REMARK  Name = .\Caffeine.pdb
REMARK  3 active torsions:
REMARK  status: ('A' for Active; 'I' for Inactive)
REMARK    1  A    between atoms: C1_1  and  N1_2
REMARK    2  A    between atoms: N3_9  and  C8_14
REMARK    3  A    between atoms: N4_12  and  C7_13
REMARK                            x       y       z     vdW  Elec       q    Type
REMARK                         _______ _______ _______ _____ _____    ______ ____
ROOT
ATOM      1  C1  UNL     1       1.994  48.804 -45.837  0.00  0.00    +0.000 C 
ATOM      2  N1  UNL     1       2.481  49.447 -47.053  0.00  0.00    +0.000 N 
ATOM      3  C2  UNL     1       1.968  49.325 -48.302  0.00  0.00    +0.000 C 
ATOM      4  N2  UNL     1       2.656  50.036 -49.233  0.00  0.00    +0.000 NA
ATOM      5  C3  UNL     1       3.631  50.619 -48.506  0.00  0.00    +0.000 C 
ATOM      6  C4  UNL     1       3.533  50.268 -47.203  0.00  0.00    +0.000 C 
ATOM      7  C5  UNL     1       4.456  50.736 -46.276  0.00  0.00    +0.000 C 
ATOM      8  O1  UNL     1       4.377  50.392 -45.065  0.00  0.00    +0.000 OA
ATOM      9  N3  UNL     1       5.457  51.571 -46.719  0.00  0.00    +0.000 N 
ATOM     10  C6  UNL     1       5.553  51.892 -48.063  0.00  0.00    +0.000 C 
ATOM     11  O2  UNL     1       6.514  52.604 -48.471  0.00  0.00    +0.000 OA
ATOM     12  N4  UNL     1       4.616  51.436 -48.967  0.00  0.00    +0.000 N 
ATOM     13  C7  UNL     1       4.723  51.751 -50.397  0.00  0.00    +0.000 C 
ATOM     14  C8  UNL     1       6.476  52.057 -45.774  0.00  0.00    +0.000 C 
ENDROOT
TORSDOF 0
ENDMDL
MODEL 5
REMARK VINA RESULT:       0.2      1.457      3.625
REMARK  Name = .\Caffeine.pdb
REMARK  3 active torsions:
REMARK  status: ('A' for Active; 'I' for Inactive)
REMARK    1  A    between atoms: C1_1  and  N1_2
REMARK    2  A    between atoms: N3_9  and  C8_14
REMARK    3  A    between atoms: N4_12  and  C7_13
REMARK                            x       y       z     vdW  Elec       q    Type
REMARK                         _______ _______ _______ _____ _____    ______ ____
ROOT
ATOM      1  C1  UNL     1       4.213  50.354 -44.263  0.00  0.00    +0.000 C 
ATOM      2  N1  UNL     1       4.936  50.844 -45.433  0.00  0.00    +0.000 N 
ATOM      3  C2  UNL     1       6.101  51.538 -45.441  0.00  0.00    +0.000 C 
ATOM      4  N2  UNL     1       6.514  51.871 -46.691  0.00  0.00    +0.000 NA
ATOM      5  C3  UNL     1       5.551  51.349 -47.476  0.00  0.00    +0.000 C 
ATOM      6  C4  UNL     1       4.603  50.736 -46.730  0.00  0.00    +0.000 C 
ATOM      7  C5  UNL     1       3.500  50.149 -47.335  0.00  0.00    +0.000 C 
ATOM      8  O1  UNL     1       2.605  49.597 -46.638  0.00  0.00    +0.000 OA
ATOM      9  N3  UNL     1       3.408  50.199 -48.708  0.00  0.00    +0.000 N 
ATOM     10  C6  UNL     1       4.376  50.858 -49.448  0.00  0.00    +0.000 C 
ATOM     11  O2  UNL     1       4.248  50.956 -50.702  0.00  0.00    +0.000 OA
ATOM     12  N4  UNL     1       5.476  51.417 -48.832  0.00  0.00    +0.000 N 
ATOM     13  C7  UNL     1       6.495  52.138 -49.606  0.00  0.00    +0.000 C 
ATOM     14  C8  UNL     1       2.234  49.622 -49.384  0.00  0.00    +0.000 C 
ENDROOT
TORSDOF 0
ENDMDL
MODEL 6
REMARK VINA RESULT:       0.3      1.141      3.473
REMARK  Name = .\Caffeine.pdb
REMARK  3 active torsions:
REMARK  status: ('A' for Active; 'I' for Inactive)
REMARK    1  A    between atoms: C1_1  and  N1_2
REMARK    2  A    between atoms: N3_9  and  C8_14
REMARK    3  A    between atoms: N4_12  and  C7_13
REMARK                            x       y       z     vdW  Elec       q    Type
REMARK                         _______ _______ _______ _____ _____    ______ ____
ROOT
ATOM      1  C1  UNL     1       6.188  51.358 -44.640  0.00  0.00    +0.000 C 
ATOM      2  N1  UNL     1       5.840  51.387 -46.057  0.00  0.00    +0.000 N 
ATOM      3  C2  UNL     1       6.514  52.018 -47.050  0.00  0.00    +0.000 C 
ATOM      4  N2  UNL     1       5.928  51.875 -48.267  0.00  0.00    +0.000 NA
ATOM      5  C3  UNL     1       4.847  51.117 -47.993  0.00  0.00    +0.000 C 
ATOM      6  C4  UNL     1       4.787  50.825 -46.673  0.00  0.00    +0.000 C 
ATOM      7  C5  UNL     1       3.736  50.074 -46.164  0.00  0.00    +0.000 C 
ATOM      8  O1  UNL     1       3.669  49.819 -44.931  0.00  0.00    +0.000 OA
ATOM      9  N3  UNL     1       2.772  49.628 -47.040  0.00  0.00    +0.000 N 
ATOM     10  C6  UNL     1       2.839  49.965 -48.382  0.00  0.00    +0.000 C 
ATOM     11  O2  UNL     1       1.914  49.609 -49.166  0.00  0.00    +0.000 OA
ATOM     12  N4  UNL     1       3.901  50.695 -48.874  0.00  0.00    +0.000 N 
ATOM     13  C7  UNL     1       3.969  51.077 -50.290  0.00  0.00    +0.000 C 
ATOM     14  C8  UNL     1       1.621  48.861 -46.534  0.00  0.00    +0.000 C 
ENDROOT
TORSDOF 0
ENDMDL
