MODEL 1
REMARK VINA RESULT:      -4.8      0.000      0.000
REMARK  Name = .\Carvone.pdb
REMARK  3 active torsions:
REMARK  status: ('A' for Active; 'I' for Inactive)
REMARK    1  A    between atoms: C1_1  and  C2_2
REMARK    2  A    between atoms: C7_8  and  C8_9
REMARK    3  A    between atoms: C7_8  and  C9_10
REMARK                            x       y       z     vdW  Elec       q    Type
REMARK                         _______ _______ _______ _____ _____    ______ ____
ROOT
ATOM      1  C1  UNL     1      -8.946  77.061  36.199  0.00  0.00    +0.000 C 
ATOM      2  C2  UNL     1      -9.146  76.884  34.714  0.00  0.00    +0.000 C 
ATOM      3  C3  UNL     1     -10.334  76.409  34.305  0.00  0.00    +0.000 C 
ATOM      4  C4  UNL     1     -10.622  76.203  32.885  0.00  0.00    +0.000 C 
ATOM      5  O1  UNL     1     -11.743  75.757  32.525  0.00  0.00    +0.000 OA
ATOM      6  C5  UNL     1      -9.604  76.518  31.887  0.00  0.00    +0.000 C 
ATOM      7  C6  UNL     1      -8.415  76.992  32.261  0.00  0.00    +0.000 C 
ATOM      8  C7  UNL     1      -8.027  77.237  33.715  0.00  0.00    +0.000 C 
ATOM      9  C8  UNL     1      -6.783  76.375  34.009  0.00  0.00    +0.000 C 
ATOM     10  C9  UNL     1      -7.670  78.730  33.849  0.00  0.00    +0.000 C 
ENDROOT
TORSDOF 0
ENDMDL
MODEL 2
REMARK VINA RESULT:      -4.6      2.409      3.685
REMARK  Name = .\Carvone.pdb
REMARK  3 active torsions:
REMARK  status: ('A' for Active; 'I' for Inactive)
REMARK    1  A    between atoms: C1_1  and  C2_2
REMARK    2  A    between atoms: C7_8  and  C8_9
REMARK    3  A    between atoms: C7_8  and  C9_10
REMARK                            x       y       z     vdW  Elec       q    Type
REMARK                         _______ _______ _______ _____ _____    ______ ____
ROOT
ATOM      1  C1  UNL     1     -10.251  79.394  33.846  0.00  0.00    +0.000 C 
ATOM      2  C2  UNL     1      -9.084  78.443  33.959  0.00  0.00    +0.000 C 
ATOM      3  C3  UNL     1      -7.929  78.814  33.386  0.00  0.00    +0.000 C 
ATOM      4  C4  UNL     1      -6.742  77.959  33.443  0.00  0.00    +0.000 C 
ATOM      5  O1  UNL     1      -5.669  78.328  32.898  0.00  0.00    +0.000 OA
ATOM      6  C5  UNL     1      -6.809  76.675  34.135  0.00  0.00    +0.000 C 
ATOM      7  C6  UNL     1      -7.942  76.278  34.715  0.00  0.00    +0.000 C 
ATOM      8  C7  UNL     1      -9.225  77.101  34.706  0.00  0.00    +0.000 C 
ATOM      9  C8  UNL     1     -10.313  76.246  34.028  0.00  0.00    +0.000 C 
ATOM     10  C9  UNL     1      -9.609  77.367  36.174  0.00  0.00    +0.000 C 
ENDROOT
TORSDOF 0
ENDMDL
MODEL 3
REMARK VINA RESULT:      -4.5      2.192      3.089
REMARK  Name = .\Carvone.pdb
REMARK  3 active torsions:
REMARK  status: ('A' for Active; 'I' for Inactive)
REMARK    1  A    between atoms: C1_1  and  C2_2
REMARK    2  A    between atoms: C7_8  and  C8_9
REMARK    3  A    between atoms: C7_8  and  C9_10
REMARK                            x       y       z     vdW  Elec       q    Type
REMARK                         _______ _______ _______ _____ _____    ______ ____
ROOT
ATOM      1  C1  UNL     1     -10.358  77.785  36.323  0.00  0.00    +0.000 C 
ATOM      2  C2  UNL     1      -9.605  77.507  35.045  0.00  0.00    +0.000 C 
ATOM      3  C3  UNL     1      -8.449  76.832  35.146  0.00  0.00    +0.000 C 
ATOM      4  C4  UNL     1      -7.648  76.515  33.963  0.00  0.00    +0.000 C 
ATOM      5  O1  UNL     1      -6.567  75.881  34.082  0.00  0.00    +0.000 OA
ATOM      6  C5  UNL     1      -8.108  76.939  32.644  0.00  0.00    +0.000 C 
ATOM      7  C6  UNL     1      -9.252  77.610  32.510  0.00  0.00    +0.000 C 
ATOM      8  C7  UNL     1     -10.150  77.983  33.684  0.00  0.00    +0.000 C 
ATOM      9  C8  UNL     1     -10.280  79.519  33.691  0.00  0.00    +0.000 C 
ATOM     10  C9  UNL     1     -11.528  77.344  33.429  0.00  0.00    +0.000 C 
ENDROOT
TORSDOF 0
ENDMDL
MODEL 4
REMARK VINA RESULT:      -4.5      2.164      3.192
REMARK  Name = .\Carvone.pdb
REMARK  3 active torsions:
REMARK  status: ('A' for Active; 'I' for Inactive)
REMARK    1  A    between atoms: C1_1  and  C2_2
REMARK    2  A    between atoms: C7_8  and  C8_9
REMARK    3  A    between atoms: C7_8  and  C9_10
REMARK                            x       y       z     vdW  Elec       q    Type
REMARK                         _______ _______ _______ _____ _____    ______ ____
ROOT
ATOM      1  C1  UNL     1      -7.472  76.721  34.595  0.00  0.00    +0.000 C 
ATOM      2  C2  UNL     1      -8.054  76.680  33.203  0.00  0.00    +0.000 C 
ATOM      3  C3  UNL     1      -7.234  76.319  32.203  0.00  0.00    +0.000 C 
ATOM      4  C4  UNL     1      -7.708  76.250  30.820  0.00  0.00    +0.000 C 
ATOM      5  O1  UNL     1      -6.921  75.908  29.898  0.00  0.00    +0.000 OA
ATOM      6  C5  UNL     1      -9.097  76.579  30.513  0.00  0.00    +0.000 C 
ATOM      7  C6  UNL     1      -9.936  76.940  31.484  0.00  0.00    +0.000 C 
ATOM      8  C7  UNL     1      -9.531  77.040  32.950  0.00  0.00    +0.000 C 
ATOM      9  C8  UNL     1      -9.792  78.491  33.400  0.00  0.00    +0.000 C 
ATOM     10  C9  UNL     1     -10.439  76.078  33.742  0.00  0.00    +0.000 C 
ENDROOT
TORSDOF 0
ENDMDL
MODEL 5
REMARK VINA RESULT:      -4.4      2.080      3.308
REMARK  Name = .\Carvone.pdb
REMARK  3 active torsions:
REMARK  status: ('A' for Active; 'I' for Inactive)
REMARK    1  A    between atoms: C1_1  and  C2_2
REMARK    2  A    between atoms: C7_8  and  C8_9
REMARK    3  A    between atoms: C7_8  and  C9_10
REMARK                            x       y       z     vdW  Elec       q    Type
REMARK                         _______ _______ _______ _____ _____    ______ ____
ROOT
ATOM      1  C1  UNL     1      -7.026  76.268  32.697  0.00  0.00    +0.000 C 
ATOM      2  C2  UNL     1      -8.151  76.801  33.550  0.00  0.00    +0.000 C 
ATOM      3  C3  UNL     1      -8.033  76.665  34.880  0.00  0.00    +0.000 C 
ATOM      4  C4  UNL     1      -9.072  77.151  35.790  0.00  0.00    +0.000 C 
ATOM      5  O1  UNL     1      -8.940  77.013  37.034  0.00  0.00    +0.000 OA
ATOM      6  C5  UNL     1     -10.263  77.798  35.247  0.00  0.00    +0.000 C 
ATOM      7  C6  UNL     1     -10.410  77.949  33.930  0.00  0.00    +0.000 C 
ATOM      8  C7  UNL     1      -9.382  77.474  32.910  0.00  0.00    +0.000 C 
ATOM      9  C8  UNL     1     -10.090  76.471  31.978  0.00  0.00    +0.000 C 
ATOM     10  C9  UNL     1      -8.933  78.708  32.104  0.00  0.00    +0.000 C 
ENDROOT
TORSDOF 0
ENDMDL
MODEL 6
REMARK VINA RESULT:      -4.4      1.859      2.869
REMARK  Name = .\Carvone.pdb
REMARK  3 active torsions:
REMARK  status: ('A' for Active; 'I' for Inactive)
REMARK    1  A    between atoms: C1_1  and  C2_2
REMARK    2  A    between atoms: C7_8  and  C8_9
REMARK    3  A    between atoms: C7_8  and  C9_10
REMARK                            x       y       z     vdW  Elec       q    Type
REMARK                         _______ _______ _______ _____ _____    ______ ____
ROOT
ATOM      1  C1  UNL     1     -10.776  77.617  33.086  0.00  0.00    +0.000 C 
ATOM      2  C2  UNL     1      -9.310  77.272  32.984  0.00  0.00    +0.000 C 
ATOM      3  C3  UNL     1      -8.913  76.587  31.900  0.00  0.00    +0.000 C 
ATOM      4  C4  UNL     1      -7.511  76.207  31.713  0.00  0.00    +0.000 C 
ATOM      5  O1  UNL     1      -7.161  75.565  30.688  0.00  0.00    +0.000 OA
ATOM      6  C5  UNL     1      -6.521  76.577  32.719  0.00  0.00    +0.000 C 
ATOM      7  C6  UNL     1      -6.884  77.258  33.806  0.00  0.00    +0.000 C 
ATOM      8  C7  UNL     1      -8.318  77.695  34.085  0.00  0.00    +0.000 C 
ATOM      9  C8  UNL     1      -8.737  77.062  35.427  0.00  0.00    +0.000 C 
ATOM     10  C9  UNL     1      -8.312  79.231  34.212  0.00  0.00    +0.000 C 
ENDROOT
TORSDOF 0
ENDMDL
MODEL 7
REMARK VINA RESULT:      -4.3      0.547      2.598
REMARK  Name = .\Carvone.pdb
REMARK  3 active torsions:
REMARK  status: ('A' for Active; 'I' for Inactive)
REMARK    1  A    between atoms: C1_1  and  C2_2
REMARK    2  A    between atoms: C7_8  and  C8_9
REMARK    3  A    between atoms: C7_8  and  C9_10
REMARK                            x       y       z     vdW  Elec       q    Type
REMARK                         _______ _______ _______ _____ _____    ______ ____
ROOT
ATOM      1  C1  UNL     1      -7.654  77.565  30.992  0.00  0.00    +0.000 C 
ATOM      2  C2  UNL     1      -8.498  77.111  32.157  0.00  0.00    +0.000 C 
ATOM      3  C3  UNL     1      -9.733  76.660  31.884  0.00  0.00    +0.000 C 
ATOM      4  C4  UNL     1     -10.626  76.198  32.948  0.00  0.00    +0.000 C 
ATOM      5  O1  UNL     1     -11.781  75.780  32.668  0.00  0.00    +0.000 OA
ATOM      6  C5  UNL     1     -10.173  76.225  34.335  0.00  0.00    +0.000 C 
ATOM      7  C6  UNL     1      -8.952  76.666  34.639  0.00  0.00    +0.000 C 
ATOM      8  C7  UNL     1      -7.956  77.166  33.599  0.00  0.00    +0.000 C 
ATOM      9  C8  UNL     1      -7.606  78.622  33.962  0.00  0.00    +0.000 C 
ATOM     10  C9  UNL     1      -6.697  76.284  33.710  0.00  0.00    +0.000 C 
ENDROOT
TORSDOF 0
ENDMDL
MODEL 8
REMARK VINA RESULT:      -4.3      1.327      2.456
REMARK  Name = .\Carvone.pdb
REMARK  3 active torsions:
REMARK  status: ('A' for Active; 'I' for Inactive)
REMARK    1  A    between atoms: C1_1  and  C2_2
REMARK    2  A    between atoms: C7_8  and  C8_9
REMARK    3  A    between atoms: C7_8  and  C9_10
REMARK                            x       y       z     vdW  Elec       q    Type
REMARK                         _______ _______ _______ _____ _____    ______ ____
ROOT
ATOM      1  C1  UNL     1      -8.100  79.513  34.046  0.00  0.00    +0.000 C 
ATOM      2  C2  UNL     1      -9.085  78.408  33.755  0.00  0.00    +0.000 C 
ATOM      3  C3  UNL     1      -9.948  78.602  32.745  0.00  0.00    +0.000 C 
ATOM      4  C4  UNL     1     -10.940  77.587  32.387  0.00  0.00    +0.000 C 
ATOM      5  O1  UNL     1     -11.739  77.791  31.435  0.00  0.00    +0.000 OA
ATOM      6  C5  UNL     1     -11.001  76.337  33.140  0.00  0.00    +0.000 C 
ATOM      7  C6  UNL     1     -10.158  76.114  34.148  0.00  0.00    +0.000 C 
ATOM      8  C7  UNL     1      -9.093  77.112  34.590  0.00  0.00    +0.000 C 
ATOM      9  C8  UNL     1      -9.371  77.454  36.068  0.00  0.00    +0.000 C 
ATOM     10  C9  UNL     1      -7.727  76.410  34.465  0.00  0.00    +0.000 C 
ENDROOT
TORSDOF 0
ENDMDL
MODEL 9
REMARK VINA RESULT:      -4.3      2.126      3.110
REMARK  Name = .\Carvone.pdb
REMARK  3 active torsions:
REMARK  status: ('A' for Active; 'I' for Inactive)
REMARK    1  A    between atoms: C1_1  and  C2_2
REMARK    2  A    between atoms: C7_8  and  C8_9
REMARK    3  A    between atoms: C7_8  and  C9_10
REMARK                            x       y       z     vdW  Elec       q    Type
REMARK                         _______ _______ _______ _____ _____    ______ ____
ROOT
ATOM      1  C1  UNL     1      -7.810  79.722  32.606  0.00  0.00    +0.000 C 
ATOM      2  C2  UNL     1      -8.137  78.652  33.620  0.00  0.00    +0.000 C 
ATOM      3  C3  UNL     1      -9.176  78.878  34.439  0.00  0.00    +0.000 C 
ATOM      4  C4  UNL     1      -9.570  77.899  35.454  0.00  0.00    +0.000 C 
ATOM      5  O1  UNL     1     -10.548  78.132  36.212  0.00  0.00    +0.000 OA
ATOM      6  C5  UNL     1      -8.823  76.652  35.584  0.00  0.00    +0.000 C 
ATOM      7  C6  UNL     1      -7.787  76.398  34.785  0.00  0.00    +0.000 C 
ATOM      8  C7  UNL     1      -7.306  77.357  33.702  0.00  0.00    +0.000 C 
ATOM      9  C8  UNL     1      -5.838  77.706  34.018  0.00  0.00    +0.000 C 
ATOM     10  C9  UNL     1      -7.385  76.607  32.358  0.00  0.00    +0.000 C 
ENDROOT
TORSDOF 0
ENDMDL
