MODEL 1
REMARK VINA RESULT:       6.8      0.000      0.000
REMARK  Name = .\Carvone.pdb
REMARK  3 active torsions:
REMARK  status: ('A' for Active; 'I' for Inactive)
REMARK    1  A    between atoms: C1_1  and  C2_2
REMARK    2  A    between atoms: C7_8  and  C8_9
REMARK    3  A    between atoms: C7_8  and  C9_10
REMARK                            x       y       z     vdW  Elec       q    Type
REMARK                         _______ _______ _______ _____ _____    ______ ____
ROOT
ATOM      1  C1  UNL     1      -6.076  79.059  63.560  0.00  0.00    +0.000 C 
ATOM      2  C2  UNL     1      -5.482  80.425  63.314  0.00  0.00    +0.000 C 
ATOM      3  C3  UNL     1      -5.737  81.003  62.130  0.00  0.00    +0.000 C 
ATOM      4  C4  UNL     1      -5.205  82.326  61.800  0.00  0.00    +0.000 C 
ATOM      5  O1  UNL     1      -5.457  82.849  60.682  0.00  0.00    +0.000 OA
ATOM      6  C5  UNL     1      -4.380  83.037  62.772  0.00  0.00    +0.000 C 
ATOM      7  C6  UNL     1      -4.110  82.490  63.958  0.00  0.00    +0.000 C 
ATOM      8  C7  UNL     1      -4.620  81.119  64.387  0.00  0.00    +0.000 C 
ATOM      9  C8  UNL     1      -3.387  80.249  64.699  0.00  0.00    +0.000 C 
ATOM     10  C9  UNL     1      -5.454  81.321  65.667  0.00  0.00    +0.000 C 
ENDROOT
TORSDOF 0
ENDMDL
MODEL 2
REMARK VINA RESULT:       7.2      0.689      2.619
REMARK  Name = .\Carvone.pdb
REMARK  3 active torsions:
REMARK  status: ('A' for Active; 'I' for Inactive)
REMARK    1  A    between atoms: C1_1  and  C2_2
REMARK    2  A    between atoms: C7_8  and  C8_9
REMARK    3  A    between atoms: C7_8  and  C9_10
REMARK                            x       y       z     vdW  Elec       q    Type
REMARK                         _______ _______ _______ _____ _____    ______ ____
ROOT
ATOM      1  C1  UNL     1      -3.455  83.550  64.515  0.00  0.00    +0.000 C 
ATOM      2  C2  UNL     1      -4.258  82.458  63.851  0.00  0.00    +0.000 C 
ATOM      3  C3  UNL     1      -4.650  82.665  62.584  0.00  0.00    +0.000 C 
ATOM      4  C4  UNL     1      -5.433  81.663  61.858  0.00  0.00    +0.000 C 
ATOM      5  O1  UNL     1      -5.790  81.879  60.670  0.00  0.00    +0.000 OA
ATOM      6  C5  UNL     1      -5.799  80.413  62.517  0.00  0.00    +0.000 C 
ATOM      7  C6  UNL     1      -5.424  80.178  63.775  0.00  0.00    +0.000 C 
ATOM      8  C7  UNL     1      -4.609  81.161  64.607  0.00  0.00    +0.000 C 
ATOM      9  C8  UNL     1      -5.442  81.503  65.858  0.00  0.00    +0.000 C 
ATOM     10  C9  UNL     1      -3.311  80.442  65.026  0.00  0.00    +0.000 C 
ENDROOT
TORSDOF 0
ENDMDL
MODEL 3
REMARK VINA RESULT:       8.5      2.009      3.862
REMARK  Name = .\Carvone.pdb
REMARK  3 active torsions:
REMARK  status: ('A' for Active; 'I' for Inactive)
REMARK    1  A    between atoms: C1_1  and  C2_2
REMARK    2  A    between atoms: C7_8  and  C8_9
REMARK    3  A    between atoms: C7_8  and  C9_10
REMARK                            x       y       z     vdW  Elec       q    Type
REMARK                         _______ _______ _______ _____ _____    ______ ____
ROOT
ATOM      1  C1  UNL     1      -3.853  83.843  61.678  0.00  0.00    +0.000 C 
ATOM      2  C2  UNL     1      -4.353  82.651  62.456  0.00  0.00    +0.000 C 
ATOM      3  C3  UNL     1      -4.122  82.639  63.779  0.00  0.00    +0.000 C 
ATOM      4  C4  UNL     1      -4.569  81.525  64.618  0.00  0.00    +0.000 C 
ATOM      5  O1  UNL     1      -4.341  81.535  65.856  0.00  0.00    +0.000 OA
ATOM      6  C5  UNL     1      -5.280  80.403  64.012  0.00  0.00    +0.000 C 
ATOM      7  C6  UNL     1      -5.526  80.387  62.702  0.00  0.00    +0.000 C 
ATOM      8  C7  UNL     1      -5.098  81.500  61.752  0.00  0.00    +0.000 C 
ATOM      9  C8  UNL     1      -4.180  80.867  60.688  0.00  0.00    +0.000 C 
ATOM     10  C9  UNL     1      -6.374  82.046  61.082  0.00  0.00    +0.000 C 
ENDROOT
TORSDOF 0
ENDMDL
