MODEL 1
REMARK VINA RESULT:      -3.6      0.000      0.000
REMARK  Name = .\Carvone.pdb
REMARK  3 active torsions:
REMARK  status: ('A' for Active; 'I' for Inactive)
REMARK    1  A    between atoms: C1_1  and  C2_2
REMARK    2  A    between atoms: C7_8  and  C8_9
REMARK    3  A    between atoms: C7_8  and  C9_10
REMARK                            x       y       z     vdW  Elec       q    Type
REMARK                         _______ _______ _______ _____ _____    ______ ____
ROOT
ATOM      1  C1  UNL     1     -18.707  59.757   4.662  0.00  0.00    +0.000 C 
ATOM      2  C2  UNL     1     -17.766  58.599   4.889  0.00  0.00    +0.000 C 
ATOM      3  C3  UNL     1     -17.555  57.766   3.858  0.00  0.00    +0.000 C 
ATOM      4  C4  UNL     1     -16.659  56.615   3.982  0.00  0.00    +0.000 C 
ATOM      5  O1  UNL     1     -16.476  55.847   3.001  0.00  0.00    +0.000 OA
ATOM      6  C5  UNL     1     -15.980  56.360   5.249  0.00  0.00    +0.000 C 
ATOM      7  C6  UNL     1     -16.168  57.170   6.291  0.00  0.00    +0.000 C 
ATOM      8  C7  UNL     1     -17.081  58.390   6.254  0.00  0.00    +0.000 C 
ATOM      9  C8  UNL     1     -18.154  58.193   7.344  0.00  0.00    +0.000 C 
ATOM     10  C9  UNL     1     -16.216  59.620   6.590  0.00  0.00    +0.000 C 
ENDROOT
TORSDOF 0
ENDMDL
MODEL 2
REMARK VINA RESULT:      -3.5      1.181      2.678
REMARK  Name = .\Carvone.pdb
REMARK  3 active torsions:
REMARK  status: ('A' for Active; 'I' for Inactive)
REMARK    1  A    between atoms: C1_1  and  C2_2
REMARK    2  A    between atoms: C7_8  and  C8_9
REMARK    3  A    between atoms: C7_8  and  C9_10
REMARK                            x       y       z     vdW  Elec       q    Type
REMARK                         _______ _______ _______ _____ _____    ______ ____
ROOT
ATOM      1  C1  UNL     1     -17.109  59.984   7.280  0.00  0.00    +0.000 C 
ATOM      2  C2  UNL     1     -17.155  59.021   6.119  0.00  0.00    +0.000 C 
ATOM      3  C3  UNL     1     -16.389  57.922   6.200  0.00  0.00    +0.000 C 
ATOM      4  C4  UNL     1     -16.367  56.930   5.124  0.00  0.00    +0.000 C 
ATOM      5  O1  UNL     1     -15.641  55.906   5.222  0.00  0.00    +0.000 OA
ATOM      6  C5  UNL     1     -17.191  57.133   3.936  0.00  0.00    +0.000 C 
ATOM      7  C6  UNL     1     -17.963  58.214   3.826  0.00  0.00    +0.000 C 
ATOM      8  C7  UNL     1     -18.049  59.298   4.894  0.00  0.00    +0.000 C 
ATOM      9  C8  UNL     1     -17.624  60.625   4.236  0.00  0.00    +0.000 C 
ATOM     10  C9  UNL     1     -19.522  59.385   5.340  0.00  0.00    +0.000 C 
ENDROOT
TORSDOF 0
ENDMDL
MODEL 3
REMARK VINA RESULT:      -3.0      2.588      4.171
REMARK  Name = .\Carvone.pdb
REMARK  3 active torsions:
REMARK  status: ('A' for Active; 'I' for Inactive)
REMARK    1  A    between atoms: C1_1  and  C2_2
REMARK    2  A    between atoms: C7_8  and  C8_9
REMARK    3  A    between atoms: C7_8  and  C9_10
REMARK                            x       y       z     vdW  Elec       q    Type
REMARK                         _______ _______ _______ _____ _____    ______ ____
ROOT
ATOM      1  C1  UNL     1     -16.839  57.740   7.014  0.00  0.00    +0.000 C 
ATOM      2  C2  UNL     1     -16.987  59.013   6.217  0.00  0.00    +0.000 C 
ATOM      3  C3  UNL     1     -16.224  60.057   6.578  0.00  0.00    +0.000 C 
ATOM      4  C4  UNL     1     -16.297  61.334   5.865  0.00  0.00    +0.000 C 
ATOM      5  O1  UNL     1     -15.572  62.300   6.221  0.00  0.00    +0.000 OA
ATOM      6  C5  UNL     1     -17.215  61.482   4.739  0.00  0.00    +0.000 C 
ATOM      7  C6  UNL     1     -17.985  60.464   4.356  0.00  0.00    +0.000 C 
ATOM      8  C7  UNL     1     -17.976  59.100   5.038  0.00  0.00    +0.000 C 
ATOM      9  C8  UNL     1     -19.407  58.833   5.546  0.00  0.00    +0.000 C 
ATOM     10  C9  UNL     1     -17.598  58.056   3.970  0.00  0.00    +0.000 C 
ENDROOT
TORSDOF 0
ENDMDL
MODEL 4
REMARK VINA RESULT:      -2.9      2.187      3.373
REMARK  Name = .\Carvone.pdb
REMARK  3 active torsions:
REMARK  status: ('A' for Active; 'I' for Inactive)
REMARK    1  A    between atoms: C1_1  and  C2_2
REMARK    2  A    between atoms: C7_8  and  C8_9
REMARK    3  A    between atoms: C7_8  and  C9_10
REMARK                            x       y       z     vdW  Elec       q    Type
REMARK                         _______ _______ _______ _____ _____    ______ ____
ROOT
ATOM      1  C1  UNL     1     -17.591  56.958   4.431  0.00  0.00    +0.000 C 
ATOM      2  C2  UNL     1     -17.489  58.411   4.826  0.00  0.00    +0.000 C 
ATOM      3  C3  UNL     1     -17.710  59.326   3.869  0.00  0.00    +0.000 C 
ATOM      4  C4  UNL     1     -17.634  60.759   4.156  0.00  0.00    +0.000 C 
ATOM      5  O1  UNL     1     -17.846  61.600   3.243  0.00  0.00    +0.000 OA
ATOM      6  C5  UNL     1     -17.311  61.210   5.507  0.00  0.00    +0.000 C 
ATOM      7  C6  UNL     1     -17.086  60.326   6.479  0.00  0.00    +0.000 C 
ATOM      8  C7  UNL     1     -17.143  58.817   6.272  0.00  0.00    +0.000 C 
ATOM      9  C8  UNL     1     -15.761  58.250   6.650  0.00  0.00    +0.000 C 
ATOM     10  C9  UNL     1     -18.214  58.263   7.232  0.00  0.00    +0.000 C 
ENDROOT
TORSDOF 0
ENDMDL
MODEL 5
REMARK VINA RESULT:      -2.9      1.793      2.466
REMARK  Name = .\Carvone.pdb
REMARK  3 active torsions:
REMARK  status: ('A' for Active; 'I' for Inactive)
REMARK    1  A    between atoms: C1_1  and  C2_2
REMARK    2  A    between atoms: C7_8  and  C8_9
REMARK    3  A    between atoms: C7_8  and  C9_10
REMARK                            x       y       z     vdW  Elec       q    Type
REMARK                         _______ _______ _______ _____ _____    ______ ____
ROOT
ATOM      1  C1  UNL     1     -17.829  62.078   3.737  0.00  0.00    +0.000 C 
ATOM      2  C2  UNL     1     -17.604  60.825   4.549  0.00  0.00    +0.000 C 
ATOM      3  C3  UNL     1     -17.793  59.649   3.931  0.00  0.00    +0.000 C 
ATOM      4  C4  UNL     1     -17.599  58.380   4.636  0.00  0.00    +0.000 C 
ATOM      5  O1  UNL     1     -17.781  57.288   4.036  0.00  0.00    +0.000 OA
ATOM      6  C5  UNL     1     -17.193  58.387   6.038  0.00  0.00    +0.000 C 
ATOM      7  C6  UNL     1     -16.997  59.539   6.680  0.00  0.00    +0.000 C 
ATOM      8  C7  UNL     1     -17.175  60.905   6.027  0.00  0.00    +0.000 C 
ATOM      9  C8  UNL     1     -18.249  61.662   6.834  0.00  0.00    +0.000 C 
ATOM     10  C9  UNL     1     -15.826  61.643   6.133  0.00  0.00    +0.000 C 
ENDROOT
TORSDOF 0
ENDMDL
MODEL 6
REMARK VINA RESULT:      -2.7      2.786      3.987
REMARK  Name = .\Carvone.pdb
REMARK  3 active torsions:
REMARK  status: ('A' for Active; 'I' for Inactive)
REMARK    1  A    between atoms: C1_1  and  C2_2
REMARK    2  A    between atoms: C7_8  and  C8_9
REMARK    3  A    between atoms: C7_8  and  C9_10
REMARK                            x       y       z     vdW  Elec       q    Type
REMARK                         _______ _______ _______ _____ _____    ______ ____
ROOT
ATOM      1  C1  UNL     1     -17.995  58.372   3.555  0.00  0.00    +0.000 C 
ATOM      2  C2  UNL     1     -17.844  59.509   4.537  0.00  0.00    +0.000 C 
ATOM      3  C3  UNL     1     -17.728  60.747   4.032  0.00  0.00    +0.000 C 
ATOM      4  C4  UNL     1     -17.578  61.913   4.905  0.00  0.00    +0.000 C 
ATOM      5  O1  UNL     1     -17.471  63.065   4.409  0.00  0.00    +0.000 OA
ATOM      6  C5  UNL     1     -17.552  61.733   6.354  0.00  0.00    +0.000 C 
ATOM      7  C6  UNL     1     -17.666  60.516   6.886  0.00  0.00    +0.000 C 
ATOM      8  C7  UNL     1     -17.826  59.247   6.056  0.00  0.00    +0.000 C 
ATOM      9  C8  UNL     1     -16.645  58.320   6.404  0.00  0.00    +0.000 C 
ATOM     10  C9  UNL     1     -19.151  58.586   6.481  0.00  0.00    +0.000 C 
ENDROOT
TORSDOF 0
ENDMDL
MODEL 7
REMARK VINA RESULT:      -2.7      1.849      3.073
REMARK  Name = .\Carvone.pdb
REMARK  3 active torsions:
REMARK  status: ('A' for Active; 'I' for Inactive)
REMARK    1  A    between atoms: C1_1  and  C2_2
REMARK    2  A    between atoms: C7_8  and  C8_9
REMARK    3  A    between atoms: C7_8  and  C9_10
REMARK                            x       y       z     vdW  Elec       q    Type
REMARK                         _______ _______ _______ _____ _____    ______ ____
ROOT
ATOM      1  C1  UNL     1     -19.886  58.158   7.344  0.00  0.00    +0.000 C 
ATOM      2  C2  UNL     1     -19.134  58.650   6.132  0.00  0.00    +0.000 C 
ATOM      3  C3  UNL     1     -18.463  57.738   5.411  0.00  0.00    +0.000 C 
ATOM      4  C4  UNL     1     -17.705  58.120   4.219  0.00  0.00    +0.000 C 
ATOM      5  O1  UNL     1     -17.083  57.246   3.558  0.00  0.00    +0.000 OA
ATOM      6  C5  UNL     1     -17.672  59.518   3.799  0.00  0.00    +0.000 C 
ATOM      7  C6  UNL     1     -18.328  60.447   4.494  0.00  0.00    +0.000 C 
ATOM      8  C7  UNL     1     -19.142  60.143   5.746  0.00  0.00    +0.000 C 
ATOM      9  C8  UNL     1     -18.543  60.976   6.896  0.00  0.00    +0.000 C 
ATOM     10  C9  UNL     1     -20.589  60.596   5.473  0.00  0.00    +0.000 C 
ENDROOT
TORSDOF 0
ENDMDL
MODEL 8
REMARK VINA RESULT:      -2.7      2.539      3.561
REMARK  Name = .\Carvone.pdb
REMARK  3 active torsions:
REMARK  status: ('A' for Active; 'I' for Inactive)
REMARK    1  A    between atoms: C1_1  and  C2_2
REMARK    2  A    between atoms: C7_8  and  C8_9
REMARK    3  A    between atoms: C7_8  and  C9_10
REMARK                            x       y       z     vdW  Elec       q    Type
REMARK                         _______ _______ _______ _____ _____    ______ ____
ROOT
ATOM      1  C1  UNL     1     -19.278  62.191   6.343  0.00  0.00    +0.000 C 
ATOM      2  C2  UNL     1     -18.895  60.745   6.146  0.00  0.00    +0.000 C 
ATOM      3  C3  UNL     1     -19.678  59.816   6.718  0.00  0.00    +0.000 C 
ATOM      4  C4  UNL     1     -19.387  58.388   6.583  0.00  0.00    +0.000 C 
ATOM      5  O1  UNL     1     -20.136  57.535   7.128  0.00  0.00    +0.000 OA
ATOM      6  C5  UNL     1     -18.224  57.957   5.812  0.00  0.00    +0.000 C 
ATOM      7  C6  UNL     1     -17.427  58.854   5.232  0.00  0.00    +0.000 C 
ATOM      8  C7  UNL     1     -17.652  60.359   5.319  0.00  0.00    +0.000 C 
ATOM      9  C8  UNL     1     -16.394  60.974   5.963  0.00  0.00    +0.000 C 
ATOM     10  C9  UNL     1     -17.809  60.883   3.878  0.00  0.00    +0.000 C 
ENDROOT
TORSDOF 0
ENDMDL
MODEL 9
REMARK VINA RESULT:      -2.6      5.689      7.288
REMARK  Name = .\Carvone.pdb
REMARK  3 active torsions:
REMARK  status: ('A' for Active; 'I' for Inactive)
REMARK    1  A    between atoms: C1_1  and  C2_2
REMARK    2  A    between atoms: C7_8  and  C8_9
REMARK    3  A    between atoms: C7_8  and  C9_10
REMARK                            x       y       z     vdW  Elec       q    Type
REMARK                         _______ _______ _______ _____ _____    ______ ____
ROOT
ATOM      1  C1  UNL     1     -17.359  62.563   4.794  0.00  0.00    +0.000 C 
ATOM      2  C2  UNL     1     -17.387  63.480   3.596  0.00  0.00    +0.000 C 
ATOM      3  C3  UNL     1     -17.627  62.922   2.399  0.00  0.00    +0.000 C 
ATOM      4  C4  UNL     1     -17.674  63.731   1.179  0.00  0.00    +0.000 C 
ATOM      5  O1  UNL     1     -17.901  63.186   0.067  0.00  0.00    +0.000 OA
ATOM      6  C5  UNL     1     -17.455  65.172   1.258  0.00  0.00    +0.000 C 
ATOM      7  C6  UNL     1     -17.215  65.756   2.432  0.00  0.00    +0.000 C 
ATOM      8  C7  UNL     1     -17.148  64.995   3.751  0.00  0.00    +0.000 C 
ATOM      9  C8  UNL     1     -15.748  65.237   4.349  0.00  0.00    +0.000 C 
ATOM     10  C9  UNL     1     -18.222  65.593   4.680  0.00  0.00    +0.000 C 
ENDROOT
TORSDOF 0
ENDMDL
