MODEL 1
REMARK VINA RESULT:      -3.8      0.000      0.000
REMARK  Name = .\Carvacrol.pdb
REMARK  5 active torsions:
REMARK  status: ('A' for Active; 'I' for Inactive)
REMARK    1  A    between atoms: C1_1  and  C2_2
REMARK    2  A    between atoms: C2_2  and  C3_3
REMARK    3  A    between atoms: C2_2  and  C4_4
REMARK    4  A    between atoms: C6_6  and  O1_11
REMARK    5  A    between atoms: C7_7  and  C10_10
REMARK                            x       y       z     vdW  Elec       q    Type
REMARK                         _______ _______ _______ _____ _____    ______ ____
ROOT
ATOM      1  C4  UNL     1      15.453  92.281  85.301  0.00  0.00    +0.000 A 
ATOM      2  C5  UNL     1      16.655  91.581  85.097  0.00  0.00    +0.000 A 
ATOM      3  C6  UNL     1      17.885  92.150  85.458  0.00  0.00    +0.000 A 
ATOM      4  C7  UNL     1      17.924  93.433  86.031  0.00  0.00    +0.000 A 
ATOM      5  C8  UNL     1      16.725  94.134  86.235  0.00  0.00    +0.000 A 
ATOM      6  C9  UNL     1      15.502  93.564  85.875  0.00  0.00    +0.000 A 
ATOM      7  C10 UNL     1      19.237  94.049  86.420  0.00  0.00    +0.000 C 
ENDROOT
BRANCH   1   9
ATOM      8  C1  UNL     1      14.029  90.210  85.421  0.00  0.00    +0.000 C 
ATOM      9  C2  UNL     1      14.131  91.650  84.905  0.00  0.00    +0.000 C 
ATOM     10  C3  UNL     1      12.947  92.496  85.389  0.00  0.00    +0.000 C 
ENDBRANCH   1   9
BRANCH   3  11
ATOM     11  O1  UNL     1      19.069  91.444  85.249  0.00  0.00    +0.000 OA
ATOM     12  H14 UNL     1      19.169  90.789  84.481  0.00  0.00    +0.000 HD
ENDBRANCH   3  11
TORSDOF 2
ENDMDL
MODEL 2
REMARK VINA RESULT:      -3.6      2.209      4.721
REMARK  Name = .\Carvacrol.pdb
REMARK  5 active torsions:
REMARK  status: ('A' for Active; 'I' for Inactive)
REMARK    1  A    between atoms: C1_1  and  C2_2
REMARK    2  A    between atoms: C2_2  and  C3_3
REMARK    3  A    between atoms: C2_2  and  C4_4
REMARK    4  A    between atoms: C6_6  and  O1_11
REMARK    5  A    between atoms: C7_7  and  C10_10
REMARK                            x       y       z     vdW  Elec       q    Type
REMARK                         _______ _______ _______ _____ _____    ______ ____
ROOT
ATOM      1  C4  UNL     1      16.375  92.946  85.196  0.00  0.00    +0.000 A 
ATOM      2  C5  UNL     1      15.099  93.277  85.682  0.00  0.00    +0.000 A 
ATOM      3  C6  UNL     1      14.061  92.334  85.667  0.00  0.00    +0.000 A 
ATOM      4  C7  UNL     1      14.291  91.043  85.160  0.00  0.00    +0.000 A 
ATOM      5  C8  UNL     1      15.565  90.711  84.674  0.00  0.00    +0.000 A 
ATOM      6  C9  UNL     1      16.597  91.652  84.691  0.00  0.00    +0.000 A 
ATOM      7  C10 UNL     1      13.184  90.029  85.140  0.00  0.00    +0.000 C 
ENDROOT
BRANCH   1   9
ATOM      8  C1  UNL     1      17.659  94.573  86.623  0.00  0.00    +0.000 C 
ATOM      9  C2  UNL     1      17.488  93.978  85.220  0.00  0.00    +0.000 C 
ATOM     10  C3  UNL     1      18.805  93.383  84.708  0.00  0.00    +0.000 C 
ENDBRANCH   1   9
BRANCH   3  11
ATOM     11  O1  UNL     1      12.799  92.678  86.153  0.00  0.00    +0.000 OA
ATOM     12  H14 UNL     1      11.979  92.117  85.947  0.00  0.00    +0.000 HD
ENDBRANCH   3  11
TORSDOF 2
ENDMDL
MODEL 3
REMARK VINA RESULT:      -3.6      1.607      4.293
REMARK  Name = .\Carvacrol.pdb
REMARK  5 active torsions:
REMARK  status: ('A' for Active; 'I' for Inactive)
REMARK    1  A    between atoms: C1_1  and  C2_2
REMARK    2  A    between atoms: C2_2  and  C3_3
REMARK    3  A    between atoms: C2_2  and  C4_4
REMARK    4  A    between atoms: C6_6  and  O1_11
REMARK    5  A    between atoms: C7_7  and  C10_10
REMARK                            x       y       z     vdW  Elec       q    Type
REMARK                         _______ _______ _______ _____ _____    ______ ____
ROOT
ATOM      1  C4  UNL     1      17.081  92.799  85.308  0.00  0.00    +0.000 A 
ATOM      2  C5  UNL     1      16.793  91.485  84.903  0.00  0.00    +0.000 A 
ATOM      3  C6  UNL     1      15.478  90.996  84.939  0.00  0.00    +0.000 A 
ATOM      4  C7  UNL     1      14.434  91.824  85.385  0.00  0.00    +0.000 A 
ATOM      5  C8  UNL     1      14.719  93.137  85.791  0.00  0.00    +0.000 A 
ATOM      6  C9  UNL     1      16.030  93.620  85.752  0.00  0.00    +0.000 A 
ATOM      7  C10 UNL     1      13.024  91.308  85.427  0.00  0.00    +0.000 C 
ENDROOT
BRANCH   1   9
ATOM      8  C1  UNL     1      18.701  94.496  86.216  0.00  0.00    +0.000 C 
ATOM      9  C2  UNL     1      18.509  93.311  85.262  0.00  0.00    +0.000 C 
ATOM     10  C3  UNL     1      19.509  92.190  85.566  0.00  0.00    +0.000 C 
ENDBRANCH   1   9
BRANCH   3  11
ATOM     11  O1  UNL     1      15.208  89.689  84.534  0.00  0.00    +0.000 OA
ATOM     12  H14 UNL     1      15.906  89.122  84.066  0.00  0.00    +0.000 HD
ENDBRANCH   3  11
TORSDOF 2
ENDMDL
MODEL 4
REMARK VINA RESULT:      -3.5      0.469      1.166
REMARK  Name = .\Carvacrol.pdb
REMARK  5 active torsions:
REMARK  status: ('A' for Active; 'I' for Inactive)
REMARK    1  A    between atoms: C1_1  and  C2_2
REMARK    2  A    between atoms: C2_2  and  C3_3
REMARK    3  A    between atoms: C2_2  and  C4_4
REMARK    4  A    between atoms: C6_6  and  O1_11
REMARK    5  A    between atoms: C7_7  and  C10_10
REMARK                            x       y       z     vdW  Elec       q    Type
REMARK                         _______ _______ _______ _____ _____    ______ ____
ROOT
ATOM      1  C4  UNL     1      15.435  92.364  85.474  0.00  0.00    +0.000 A 
ATOM      2  C5  UNL     1      16.607  91.630  85.223  0.00  0.00    +0.000 A 
ATOM      3  C6  UNL     1      17.868  92.182  85.492  0.00  0.00    +0.000 A 
ATOM      4  C7  UNL     1      17.969  93.482  86.018  0.00  0.00    +0.000 A 
ATOM      5  C8  UNL     1      16.799  94.216  86.269  0.00  0.00    +0.000 A 
ATOM      6  C9  UNL     1      15.545  93.663  86.000  0.00  0.00    +0.000 A 
ATOM      7  C10 UNL     1      19.316  94.080  86.308  0.00  0.00    +0.000 C 
ENDROOT
BRANCH   1   9
ATOM      8  C1  UNL     1      13.298  92.601  84.168  0.00  0.00    +0.000 C 
ATOM      9  C2  UNL     1      14.079  91.751  85.178  0.00  0.00    +0.000 C 
ATOM     10  C3  UNL     1      14.219  90.305  84.690  0.00  0.00    +0.000 C 
ENDBRANCH   1   9
BRANCH   3  11
ATOM     11  O1  UNL     1      19.023  91.442  85.237  0.00  0.00    +0.000 OA
ATOM     12  H14 UNL     1      19.638  91.141  85.985  0.00  0.00    +0.000 HD
ENDBRANCH   3  11
TORSDOF 2
ENDMDL
MODEL 5
REMARK VINA RESULT:      -3.5      2.644      4.647
REMARK  Name = .\Carvacrol.pdb
REMARK  5 active torsions:
REMARK  status: ('A' for Active; 'I' for Inactive)
REMARK    1  A    between atoms: C1_1  and  C2_2
REMARK    2  A    between atoms: C2_2  and  C3_3
REMARK    3  A    between atoms: C2_2  and  C4_4
REMARK    4  A    between atoms: C6_6  and  O1_11
REMARK    5  A    between atoms: C7_7  and  C10_10
REMARK                            x       y       z     vdW  Elec       q    Type
REMARK                         _______ _______ _______ _____ _____    ______ ____
ROOT
ATOM      1  C4  UNL     1      16.031  93.270  84.270  0.00  0.00    +0.000 A 
ATOM      2  C5  UNL     1      14.918  93.597  85.062  0.00  0.00    +0.000 A 
ATOM      3  C6  UNL     1      14.024  92.603  85.487  0.00  0.00    +0.000 A 
ATOM      4  C7  UNL     1      14.238  91.263  85.119  0.00  0.00    +0.000 A 
ATOM      5  C8  UNL     1      15.349  90.934  84.328  0.00  0.00    +0.000 A 
ATOM      6  C9  UNL     1      16.238  91.927  83.908  0.00  0.00    +0.000 A 
ATOM      7  C10 UNL     1      13.284  90.193  85.570  0.00  0.00    +0.000 C 
ENDROOT
BRANCH   1   9
ATOM      8  C1  UNL     1      18.391  93.791  83.568  0.00  0.00    +0.000 C 
ATOM      9  C2  UNL     1      16.989  94.358  83.820  0.00  0.00    +0.000 C 
ATOM     10  C3  UNL     1      16.456  95.085  82.580  0.00  0.00    +0.000 C 
ENDBRANCH   1   9
BRANCH   3  11
ATOM     11  O1  UNL     1      12.922  92.944  86.272  0.00  0.00    +0.000 OA
ATOM     12  H14 UNL     1      12.283  93.682  85.999  0.00  0.00    +0.000 HD
ENDBRANCH   3  11
TORSDOF 2
ENDMDL
MODEL 6
REMARK VINA RESULT:      -3.4      1.561      4.105
REMARK  Name = .\Carvacrol.pdb
REMARK  5 active torsions:
REMARK  status: ('A' for Active; 'I' for Inactive)
REMARK    1  A    between atoms: C1_1  and  C2_2
REMARK    2  A    between atoms: C2_2  and  C3_3
REMARK    3  A    between atoms: C2_2  and  C4_4
REMARK    4  A    between atoms: C6_6  and  O1_11
REMARK    5  A    between atoms: C7_7  and  C10_10
REMARK                            x       y       z     vdW  Elec       q    Type
REMARK                         _______ _______ _______ _____ _____    ______ ____
ROOT
ATOM      1  C4  UNL     1      15.743  93.682  85.560  0.00  0.00    +0.000 A 
ATOM      2  C5  UNL     1      16.399  92.585  84.975  0.00  0.00    +0.000 A 
ATOM      3  C6  UNL     1      15.696  91.411  84.668  0.00  0.00    +0.000 A 
ATOM      4  C7  UNL     1      14.320  91.323  84.945  0.00  0.00    +0.000 A 
ATOM      5  C8  UNL     1      13.663  92.417  85.529  0.00  0.00    +0.000 A 
ATOM      6  C9  UNL     1      14.367  93.585  85.834  0.00  0.00    +0.000 A 
ATOM      7  C10 UNL     1      13.561  90.069  84.619  0.00  0.00    +0.000 C 
ENDROOT
BRANCH   1   9
ATOM      8  C1  UNL     1      16.947  94.966  87.359  0.00  0.00    +0.000 C 
ATOM      9  C2  UNL     1      16.519  94.944  85.886  0.00  0.00    +0.000 C 
ATOM     10  C3  UNL     1      17.729  95.106  84.957  0.00  0.00    +0.000 C 
ENDBRANCH   1   9
BRANCH   3  11
ATOM     11  O1  UNL     1      16.360  90.330  84.088  0.00  0.00    +0.000 OA
ATOM     12  H14 UNL     1      17.212  90.455  83.552  0.00  0.00    +0.000 HD
ENDBRANCH   3  11
TORSDOF 2
ENDMDL
MODEL 7
REMARK VINA RESULT:      -3.4      2.066      4.193
REMARK  Name = .\Carvacrol.pdb
REMARK  5 active torsions:
REMARK  status: ('A' for Active; 'I' for Inactive)
REMARK    1  A    between atoms: C1_1  and  C2_2
REMARK    2  A    between atoms: C2_2  and  C3_3
REMARK    3  A    between atoms: C2_2  and  C4_4
REMARK    4  A    between atoms: C6_6  and  O1_11
REMARK    5  A    between atoms: C7_7  and  C10_10
REMARK                            x       y       z     vdW  Elec       q    Type
REMARK                         _______ _______ _______ _____ _____    ______ ____
ROOT
ATOM      1  C4  UNL     1      16.156  93.586  84.296  0.00  0.00    +0.000 A 
ATOM      2  C5  UNL     1      16.467  92.286  83.862  0.00  0.00    +0.000 A 
ATOM      3  C6  UNL     1      15.661  91.198  84.226  0.00  0.00    +0.000 A 
ATOM      4  C7  UNL     1      14.528  91.402  85.034  0.00  0.00    +0.000 A 
ATOM      5  C8  UNL     1      14.216  92.699  85.469  0.00  0.00    +0.000 A 
ATOM      6  C9  UNL     1      15.021  93.781  85.103  0.00  0.00    +0.000 A 
ATOM      7  C10 UNL     1      13.661  90.241  85.429  0.00  0.00    +0.000 C 
ENDROOT
BRANCH   1   9
ATOM      8  C1  UNL     1      18.131  95.006  84.938  0.00  0.00    +0.000 C 
ATOM      9  C2  UNL     1      17.038  94.753  83.892  0.00  0.00    +0.000 C 
ATOM     10  C3  UNL     1      17.645  94.532  82.501  0.00  0.00    +0.000 C 
ENDBRANCH   1   9
BRANCH   3  11
ATOM     11  O1  UNL     1      15.983  89.913  83.789  0.00  0.00    +0.000 OA
ATOM     12  H14 UNL     1      15.520  89.491  82.992  0.00  0.00    +0.000 HD
ENDBRANCH   3  11
TORSDOF 2
ENDMDL
MODEL 8
REMARK VINA RESULT:      -3.3      1.590      2.518
REMARK  Name = .\Carvacrol.pdb
REMARK  5 active torsions:
REMARK  status: ('A' for Active; 'I' for Inactive)
REMARK    1  A    between atoms: C1_1  and  C2_2
REMARK    2  A    between atoms: C2_2  and  C3_3
REMARK    3  A    between atoms: C2_2  and  C4_4
REMARK    4  A    between atoms: C6_6  and  O1_11
REMARK    5  A    between atoms: C7_7  and  C10_10
REMARK                            x       y       z     vdW  Elec       q    Type
REMARK                         _______ _______ _______ _____ _____    ______ ____
ROOT
ATOM      1  C4  UNL     1      13.962  93.057  84.990  0.00  0.00    +0.000 A 
ATOM      2  C5  UNL     1      14.484  91.895  84.396  0.00  0.00    +0.000 A 
ATOM      3  C6  UNL     1      15.837  91.558  84.549  0.00  0.00    +0.000 A 
ATOM      4  C7  UNL     1      16.686  92.388  85.302  0.00  0.00    +0.000 A 
ATOM      5  C8  UNL     1      16.167  93.549  85.896  0.00  0.00    +0.000 A 
ATOM      6  C9  UNL     1      14.818  93.880  85.742  0.00  0.00    +0.000 A 
ATOM      7  C10 UNL     1      18.136  92.034  85.470  0.00  0.00    +0.000 C 
ENDROOT
BRANCH   1   9
ATOM      8  C1  UNL     1      12.125  94.656  85.620  0.00  0.00    +0.000 C 
ATOM      9  C2  UNL     1      12.495  93.405  84.814  0.00  0.00    +0.000 C 
ATOM     10  C3  UNL     1      12.141  93.578  83.332  0.00  0.00    +0.000 C 
ENDBRANCH   1   9
BRANCH   3  11
ATOM     11  O1  UNL     1      16.341  90.402  83.953  0.00  0.00    +0.000 OA
ATOM     12  H14 UNL     1      15.861  89.949  83.184  0.00  0.00    +0.000 HD
ENDBRANCH   3  11
TORSDOF 2
ENDMDL
MODEL 9
REMARK VINA RESULT:      -3.2      2.024      4.687
REMARK  Name = .\Carvacrol.pdb
REMARK  5 active torsions:
REMARK  status: ('A' for Active; 'I' for Inactive)
REMARK    1  A    between atoms: C1_1  and  C2_2
REMARK    2  A    between atoms: C2_2  and  C3_3
REMARK    3  A    between atoms: C2_2  and  C4_4
REMARK    4  A    between atoms: C6_6  and  O1_11
REMARK    5  A    between atoms: C7_7  and  C10_10
REMARK                            x       y       z     vdW  Elec       q    Type
REMARK                         _______ _______ _______ _____ _____    ______ ____
ROOT
ATOM      1  C4  UNL     1      17.204  92.551  85.172  0.00  0.00    +0.000 A 
ATOM      2  C5  UNL     1      16.226  93.417  85.689  0.00  0.00    +0.000 A 
ATOM      3  C6  UNL     1      14.894  92.998  85.818  0.00  0.00    +0.000 A 
ATOM      4  C7  UNL     1      14.525  91.699  85.427  0.00  0.00    +0.000 A 
ATOM      5  C8  UNL     1      15.501  90.832  84.909  0.00  0.00    +0.000 A 
ATOM      6  C9  UNL     1      16.827  91.253  84.783  0.00  0.00    +0.000 A 
ATOM      7  C10 UNL     1      13.101  91.243  85.562  0.00  0.00    +0.000 C 
ENDROOT
BRANCH   1   9
ATOM      8  C1  UNL     1      18.827  94.411  85.658  0.00  0.00    +0.000 C 
ATOM      9  C2  UNL     1      18.641  93.021  85.039  0.00  0.00    +0.000 C 
ATOM     10  C3  UNL     1      19.613  92.007  85.654  0.00  0.00    +0.000 C 
ENDBRANCH   1   9
BRANCH   3  11
ATOM     11  O1  UNL     1      13.934  93.869  86.333  0.00  0.00    +0.000 OA
ATOM     12  H14 UNL     1      14.133  94.473  87.123  0.00  0.00    +0.000 HD
ENDBRANCH   3  11
TORSDOF 2
ENDMDL
