MODEL 1
REMARK VINA RESULT:      -5.0      0.000      0.000
REMARK  Name = .\Carvone.pdb
REMARK  3 active torsions:
REMARK  status: ('A' for Active; 'I' for Inactive)
REMARK    1  A    between atoms: C1_1  and  C2_2
REMARK    2  A    between atoms: C7_8  and  C8_9
REMARK    3  A    between atoms: C7_8  and  C9_10
REMARK                            x       y       z     vdW  Elec       q    Type
REMARK                         _______ _______ _______ _____ _____    ______ ____
ROOT
ATOM      1  C1  UNL     1       1.631  36.625  16.743  0.00  0.00    +0.000 C 
ATOM      2  C2  UNL     1       0.177  36.999  16.890  0.00  0.00    +0.000 C 
ATOM      3  C3  UNL     1      -0.173  38.253  16.561  0.00  0.00    +0.000 C 
ATOM      4  C4  UNL     1      -1.560  38.709  16.671  0.00  0.00    +0.000 C 
ATOM      5  O1  UNL     1      -1.864  39.889  16.356  0.00  0.00    +0.000 OA
ATOM      6  C5  UNL     1      -2.588  37.788  17.147  0.00  0.00    +0.000 C 
ATOM      7  C6  UNL     1      -2.273  36.537  17.481  0.00  0.00    +0.000 C 
ATOM      8  C7  UNL     1      -0.858  35.976  17.399  0.00  0.00    +0.000 C 
ATOM      9  C8  UNL     1      -0.467  35.510  18.816  0.00  0.00    +0.000 C 
ATOM     10  C9  UNL     1      -0.899  34.767  16.445  0.00  0.00    +0.000 C 
ENDROOT
TORSDOF 0
ENDMDL
MODEL 2
REMARK VINA RESULT:      -4.6      2.166      3.833
REMARK  Name = .\Carvone.pdb
REMARK  3 active torsions:
REMARK  status: ('A' for Active; 'I' for Inactive)
REMARK    1  A    between atoms: C1_1  and  C2_2
REMARK    2  A    between atoms: C7_8  and  C8_9
REMARK    3  A    between atoms: C7_8  and  C9_10
REMARK                            x       y       z     vdW  Elec       q    Type
REMARK                         _______ _______ _______ _____ _____    ______ ____
ROOT
ATOM      1  C1  UNL     1      -3.147  37.177  18.514  0.00  0.00    +0.000 C 
ATOM      2  C2  UNL     1      -1.748  37.221  17.951  0.00  0.00    +0.000 C 
ATOM      3  C3  UNL     1      -0.879  36.295  18.386  0.00  0.00    +0.000 C 
ATOM      4  C4  UNL     1       0.500  36.257  17.898  0.00  0.00    +0.000 C 
ATOM      5  O1  UNL     1       1.298  35.379  18.320  0.00  0.00    +0.000 OA
ATOM      6  C5  UNL     1       0.948  37.243  16.918  0.00  0.00    +0.000 C 
ATOM      7  C6  UNL     1       0.109  38.175  16.465  0.00  0.00    +0.000 C 
ATOM      8  C7  UNL     1      -1.342  38.290  16.917  0.00  0.00    +0.000 C 
ATOM      9  C8  UNL     1      -1.521  39.693  17.531  0.00  0.00    +0.000 C 
ATOM     10  C9  UNL     1      -2.225  38.154  15.662  0.00  0.00    +0.000 C 
ENDROOT
TORSDOF 0
ENDMDL
MODEL 3
REMARK VINA RESULT:      -4.3      1.244      1.487
REMARK  Name = .\Carvone.pdb
REMARK  3 active torsions:
REMARK  status: ('A' for Active; 'I' for Inactive)
REMARK    1  A    between atoms: C1_1  and  C2_2
REMARK    2  A    between atoms: C7_8  and  C8_9
REMARK    3  A    between atoms: C7_8  and  C9_10
REMARK                            x       y       z     vdW  Elec       q    Type
REMARK                         _______ _______ _______ _____ _____    ______ ____
ROOT
ATOM      1  C1  UNL     1       2.496  36.715  17.082  0.00  0.00    +0.000 C 
ATOM      2  C2  UNL     1       1.005  36.495  17.018  0.00  0.00    +0.000 C 
ATOM      3  C3  UNL     1       0.231  37.574  16.816  0.00  0.00    +0.000 C 
ATOM      4  C4  UNL     1      -1.226  37.460  16.739  0.00  0.00    +0.000 C 
ATOM      5  O1  UNL     1      -1.932  38.486  16.549  0.00  0.00    +0.000 OA
ATOM      6  C5  UNL     1      -1.858  36.152  16.884  0.00  0.00    +0.000 C 
ATOM      7  C6  UNL     1      -1.118  35.062  17.085  0.00  0.00    +0.000 C 
ATOM      8  C7  UNL     1       0.404  35.085  17.179  0.00  0.00    +0.000 C 
ATOM      9  C8  UNL     1       0.786  34.517  18.560  0.00  0.00    +0.000 C 
ATOM     10  C9  UNL     1       0.945  34.164  16.068  0.00  0.00    +0.000 C 
ENDROOT
TORSDOF 0
ENDMDL
MODEL 4
REMARK VINA RESULT:      -4.2      2.387      3.609
REMARK  Name = .\Carvone.pdb
REMARK  3 active torsions:
REMARK  status: ('A' for Active; 'I' for Inactive)
REMARK    1  A    between atoms: C1_1  and  C2_2
REMARK    2  A    between atoms: C7_8  and  C8_9
REMARK    3  A    between atoms: C7_8  and  C9_10
REMARK                            x       y       z     vdW  Elec       q    Type
REMARK                         _______ _______ _______ _____ _____    ______ ____
ROOT
ATOM      1  C1  UNL     1      -0.306  38.519  16.320  0.00  0.00    +0.000 C 
ATOM      2  C2  UNL     1       0.186  37.274  17.018  0.00  0.00    +0.000 C 
ATOM      3  C3  UNL     1       1.508  37.046  17.011  0.00  0.00    +0.000 C 
ATOM      4  C4  UNL     1       2.080  35.866  17.661  0.00  0.00    +0.000 C 
ATOM      5  O1  UNL     1       3.324  35.672  17.641  0.00  0.00    +0.000 OA
ATOM      6  C5  UNL     1       1.200  34.913  18.332  0.00  0.00    +0.000 C 
ATOM      7  C6  UNL     1      -0.118  35.112  18.357  0.00  0.00    +0.000 C 
ATOM      8  C7  UNL     1      -0.800  36.310  17.708  0.00  0.00    +0.000 C 
ATOM      9  C8  UNL     1      -1.797  35.762  16.668  0.00  0.00    +0.000 C 
ATOM     10  C9  UNL     1      -1.562  37.060  18.818  0.00  0.00    +0.000 C 
ENDROOT
TORSDOF 0
ENDMDL
MODEL 5
REMARK VINA RESULT:      -4.1      2.291      3.421
REMARK  Name = .\Carvone.pdb
REMARK  3 active torsions:
REMARK  status: ('A' for Active; 'I' for Inactive)
REMARK    1  A    between atoms: C1_1  and  C2_2
REMARK    2  A    between atoms: C7_8  and  C8_9
REMARK    3  A    between atoms: C7_8  and  C9_10
REMARK                            x       y       z     vdW  Elec       q    Type
REMARK                         _______ _______ _______ _____ _____    ______ ____
ROOT
ATOM      1  C1  UNL     1       0.567  39.068  16.713  0.00  0.00    +0.000 C 
ATOM      2  C2  UNL     1       0.031  37.668  16.884  0.00  0.00    +0.000 C 
ATOM      3  C3  UNL     1       0.919  36.661  16.865  0.00  0.00    +0.000 C 
ATOM      4  C4  UNL     1       0.494  35.269  17.023  0.00  0.00    +0.000 C 
ATOM      5  O1  UNL     1       1.345  34.342  17.002  0.00  0.00    +0.000 OA
ATOM      6  C5  UNL     1      -0.921  34.961  17.204  0.00  0.00    +0.000 C 
ATOM      7  C6  UNL     1      -1.828  35.938  17.228  0.00  0.00    +0.000 C 
ATOM      8  C7  UNL     1      -1.478  37.414  17.072  0.00  0.00    +0.000 C 
ATOM      9  C8  UNL     1      -2.246  37.939  15.842  0.00  0.00    +0.000 C 
ATOM     10  C9  UNL     1      -1.968  38.138  18.341  0.00  0.00    +0.000 C 
ENDROOT
TORSDOF 0
ENDMDL
MODEL 6
REMARK VINA RESULT:      -4.0      1.835      3.198
REMARK  Name = .\Carvone.pdb
REMARK  3 active torsions:
REMARK  status: ('A' for Active; 'I' for Inactive)
REMARK    1  A    between atoms: C1_1  and  C2_2
REMARK    2  A    between atoms: C7_8  and  C8_9
REMARK    3  A    between atoms: C7_8  and  C9_10
REMARK                            x       y       z     vdW  Elec       q    Type
REMARK                         _______ _______ _______ _____ _____    ______ ____
ROOT
ATOM      1  C1  UNL     1      -0.436  32.816  16.118  0.00  0.00    +0.000 C 
ATOM      2  C2  UNL     1      -0.352  34.200  16.714  0.00  0.00    +0.000 C 
ATOM      3  C3  UNL     1      -1.476  34.933  16.730  0.00  0.00    +0.000 C 
ATOM      4  C4  UNL     1      -1.494  36.287  17.287  0.00  0.00    +0.000 C 
ATOM      5  O1  UNL     1      -2.561  36.956  17.292  0.00  0.00    +0.000 OA
ATOM      6  C5  UNL     1      -0.268  36.858  17.838  0.00  0.00    +0.000 C 
ATOM      7  C6  UNL     1       0.865  36.155  17.837  0.00  0.00    +0.000 C 
ATOM      8  C7  UNL     1       0.976  34.741  17.279  0.00  0.00    +0.000 C 
ATOM      9  C8  UNL     1       2.037  34.773  16.160  0.00  0.00    +0.000 C 
ATOM     10  C9  UNL     1       1.457  33.832  18.426  0.00  0.00    +0.000 C 
ENDROOT
TORSDOF 0
ENDMDL
MODEL 7
REMARK VINA RESULT:      -3.9      1.473      1.934
REMARK  Name = .\Carvone.pdb
REMARK  3 active torsions:
REMARK  status: ('A' for Active; 'I' for Inactive)
REMARK    1  A    between atoms: C1_1  and  C2_2
REMARK    2  A    between atoms: C7_8  and  C8_9
REMARK    3  A    between atoms: C7_8  and  C9_10
REMARK                            x       y       z     vdW  Elec       q    Type
REMARK                         _______ _______ _______ _____ _____    ______ ____
ROOT
ATOM      1  C1  UNL     1       2.411  34.424  16.659  0.00  0.00    +0.000 C 
ATOM      2  C2  UNL     1       1.148  35.238  16.807  0.00  0.00    +0.000 C 
ATOM      3  C3  UNL     1       1.266  36.574  16.744  0.00  0.00    +0.000 C 
ATOM      4  C4  UNL     1       0.099  37.447  16.876  0.00  0.00    +0.000 C 
ATOM      5  O1  UNL     1       0.233  38.698  16.814  0.00  0.00    +0.000 OA
ATOM      6  C5  UNL     1      -1.223  36.862  17.081  0.00  0.00    +0.000 C 
ATOM      7  C6  UNL     1      -1.373  35.539  17.147  0.00  0.00    +0.000 C 
ATOM      8  C7  UNL     1      -0.216  34.554  17.020  0.00  0.00    +0.000 C 
ATOM      9  C8  UNL     1      -0.178  33.723  18.317  0.00  0.00    +0.000 C 
ATOM     10  C9  UNL     1      -0.525  33.636  15.821  0.00  0.00    +0.000 C 
ENDROOT
TORSDOF 0
ENDMDL
MODEL 8
REMARK VINA RESULT:      -3.8      2.266      3.858
REMARK  Name = .\Carvone.pdb
REMARK  3 active torsions:
REMARK  status: ('A' for Active; 'I' for Inactive)
REMARK    1  A    between atoms: C1_1  and  C2_2
REMARK    2  A    between atoms: C7_8  and  C8_9
REMARK    3  A    between atoms: C7_8  and  C9_10
REMARK                            x       y       z     vdW  Elec       q    Type
REMARK                         _______ _______ _______ _____ _____    ______ ____
ROOT
ATOM      1  C1  UNL     1       0.033  32.711  17.662  0.00  0.00    +0.000 C 
ATOM      2  C2  UNL     1       0.566  34.108  17.460  0.00  0.00    +0.000 C 
ATOM      3  C3  UNL     1      -0.189  35.125  17.906  0.00  0.00    +0.000 C 
ATOM      4  C4  UNL     1       0.244  36.516  17.756  0.00  0.00    +0.000 C 
ATOM      5  O1  UNL     1      -0.481  37.453  18.182  0.00  0.00    +0.000 OA
ATOM      6  C5  UNL     1       1.519  36.811  17.109  0.00  0.00    +0.000 C 
ATOM      7  C6  UNL     1       2.292  35.823  16.657  0.00  0.00    +0.000 C 
ATOM      8  C7  UNL     1       1.923  34.348  16.769  0.00  0.00    +0.000 C 
ATOM      9  C8  UNL     1       1.880  33.776  15.338  0.00  0.00    +0.000 C 
ATOM     10  C9  UNL     1       3.040  33.656  17.574  0.00  0.00    +0.000 C 
ENDROOT
TORSDOF 0
ENDMDL
MODEL 9
REMARK VINA RESULT:      -3.7      2.159      3.107
REMARK  Name = .\Carvone.pdb
REMARK  3 active torsions:
REMARK  status: ('A' for Active; 'I' for Inactive)
REMARK    1  A    between atoms: C1_1  and  C2_2
REMARK    2  A    between atoms: C7_8  and  C8_9
REMARK    3  A    between atoms: C7_8  and  C9_10
REMARK                            x       y       z     vdW  Elec       q    Type
REMARK                         _______ _______ _______ _____ _____    ______ ____
ROOT
ATOM      1  C1  UNL     1       3.606  36.194  16.128  0.00  0.00    +0.000 C 
ATOM      2  C2  UNL     1       2.332  35.883  16.876  0.00  0.00    +0.000 C 
ATOM      3  C3  UNL     1       1.481  36.898  17.090  0.00  0.00    +0.000 C 
ATOM      4  C4  UNL     1       0.220  36.694  17.805  0.00  0.00    +0.000 C 
ATOM      5  O1  UNL     1      -0.564  37.661  17.995  0.00  0.00    +0.000 OA
ATOM      6  C5  UNL     1      -0.125  35.364  18.299  0.00  0.00    +0.000 C 
ATOM      7  C6  UNL     1       0.700  34.335  18.102  0.00  0.00    +0.000 C 
ATOM      8  C7  UNL     1       2.032  34.454  17.369  0.00  0.00    +0.000 C 
ATOM      9  C8  UNL     1       3.135  34.004  18.347  0.00  0.00    +0.000 C 
ATOM     10  C9  UNL     1       1.979  33.494  16.165  0.00  0.00    +0.000 C 
ENDROOT
TORSDOF 0
ENDMDL
