MODEL 1
REMARK VINA RESULT:      -4.2      0.000      0.000
REMARK  Name = .\Carvone.pdb
REMARK  3 active torsions:
REMARK  status: ('A' for Active; 'I' for Inactive)
REMARK    1  A    between atoms: C1_1  and  C2_2
REMARK    2  A    between atoms: C7_8  and  C8_9
REMARK    3  A    between atoms: C7_8  and  C9_10
REMARK                            x       y       z     vdW  Elec       q    Type
REMARK                         _______ _______ _______ _____ _____    ______ ____
ROOT
ATOM      1  C1  UNL     1     -21.500  82.433 115.128  0.00  0.00    +0.000 C 
ATOM      2  C2  UNL     1     -20.629  81.235 115.416  0.00  0.00    +0.000 C 
ATOM      3  C3  UNL     1     -20.990  80.442 116.437  0.00  0.00    +0.000 C 
ATOM      4  C4  UNL     1     -20.208  79.256 116.791  0.00  0.00    +0.000 C 
ATOM      5  O1  UNL     1     -20.567  78.526 117.753  0.00  0.00    +0.000 OA
ATOM      6  C5  UNL     1     -19.011  78.924 116.026  0.00  0.00    +0.000 C 
ATOM      7  C6  UNL     1     -18.626  79.691 115.006  0.00  0.00    +0.000 C 
ATOM      8  C7  UNL     1     -19.376  80.943 114.566  0.00  0.00    +0.000 C 
ATOM      9  C8  UNL     1     -18.395  82.127 114.671  0.00  0.00    +0.000 C 
ATOM     10  C9  UNL     1     -19.789  80.736 113.095  0.00  0.00    +0.000 C 
ENDROOT
TORSDOF 0
ENDMDL
MODEL 2
REMARK VINA RESULT:      -4.1      1.092      2.723
REMARK  Name = .\Carvone.pdb
REMARK  3 active torsions:
REMARK  status: ('A' for Active; 'I' for Inactive)
REMARK    1  A    between atoms: C1_1  and  C2_2
REMARK    2  A    between atoms: C7_8  and  C8_9
REMARK    3  A    between atoms: C7_8  and  C9_10
REMARK                            x       y       z     vdW  Elec       q    Type
REMARK                         _______ _______ _______ _____ _____    ______ ____
ROOT
ATOM      1  C1  UNL     1     -18.370  78.835 115.379  0.00  0.00    +0.000 C 
ATOM      2  C2  UNL     1     -19.403  79.764 115.970  0.00  0.00    +0.000 C 
ATOM      3  C3  UNL     1     -20.019  79.365 117.094  0.00  0.00    +0.000 C 
ATOM      4  C4  UNL     1     -21.034  80.198 117.740  0.00  0.00    +0.000 C 
ATOM      5  O1  UNL     1     -21.599  79.803 118.795  0.00  0.00    +0.000 OA
ATOM      6  C5  UNL     1     -21.390  81.488 117.158  0.00  0.00    +0.000 C 
ATOM      7  C6  UNL     1     -20.796  81.913 116.042  0.00  0.00    +0.000 C 
ATOM      8  C7  UNL     1     -19.729  81.114 115.302  0.00  0.00    +0.000 C 
ATOM      9  C8  UNL     1     -20.251  80.868 113.872  0.00  0.00    +0.000 C 
ATOM     10  C9  UNL     1     -18.458  81.984 115.250  0.00  0.00    +0.000 C 
ENDROOT
TORSDOF 0
ENDMDL
MODEL 3
REMARK VINA RESULT:      -4.1      3.005      4.418
REMARK  Name = .\Carvone.pdb
REMARK  3 active torsions:
REMARK  status: ('A' for Active; 'I' for Inactive)
REMARK    1  A    between atoms: C1_1  and  C2_2
REMARK    2  A    between atoms: C7_8  and  C8_9
REMARK    3  A    between atoms: C7_8  and  C9_10
REMARK                            x       y       z     vdW  Elec       q    Type
REMARK                         _______ _______ _______ _____ _____    ______ ____
ROOT
ATOM      1  C1  UNL     1     -18.333  82.994 115.869  0.00  0.00    +0.000 C 
ATOM      2  C2  UNL     1     -18.413  82.365 114.500  0.00  0.00    +0.000 C 
ATOM      3  C3  UNL     1     -17.597  82.849 113.551  0.00  0.00    +0.000 C 
ATOM      4  C4  UNL     1     -17.602  82.303 112.193  0.00  0.00    +0.000 C 
ATOM      5  O1  UNL     1     -16.827  82.773 111.319  0.00  0.00    +0.000 OA
ATOM      6  C5  UNL     1     -18.511  81.211 111.856  0.00  0.00    +0.000 C 
ATOM      7  C6  UNL     1     -19.334  80.708 112.776  0.00  0.00    +0.000 C 
ATOM      8  C7  UNL     1     -19.397  81.213 114.213  0.00  0.00    +0.000 C 
ATOM      9  C8  UNL     1     -20.840  81.693 114.467  0.00  0.00    +0.000 C 
ATOM     10  C9  UNL     1     -19.075  80.019 115.133  0.00  0.00    +0.000 C 
ENDROOT
TORSDOF 0
ENDMDL
MODEL 4
REMARK VINA RESULT:      -3.7      3.481      4.989
REMARK  Name = .\Carvone.pdb
REMARK  3 active torsions:
REMARK  status: ('A' for Active; 'I' for Inactive)
REMARK    1  A    between atoms: C1_1  and  C2_2
REMARK    2  A    between atoms: C7_8  and  C8_9
REMARK    3  A    between atoms: C7_8  and  C9_10
REMARK                            x       y       z     vdW  Elec       q    Type
REMARK                         _______ _______ _______ _____ _____    ______ ____
ROOT
ATOM      1  C1  UNL     1     -20.709  80.674 111.736  0.00  0.00    +0.000 C 
ATOM      2  C2  UNL     1     -19.489  81.469 112.135  0.00  0.00    +0.000 C 
ATOM      3  C3  UNL     1     -18.686  81.901 111.151  0.00  0.00    +0.000 C 
ATOM      4  C4  UNL     1     -17.481  82.679 111.440  0.00  0.00    +0.000 C 
ATOM      5  O1  UNL     1     -16.742  83.075 110.499  0.00  0.00    +0.000 OA
ATOM      6  C5  UNL     1     -17.138  82.995 112.823  0.00  0.00    +0.000 C 
ATOM      7  C6  UNL     1     -17.915  82.580 113.823  0.00  0.00    +0.000 C 
ATOM      8  C7  UNL     1     -19.188  81.766 113.617  0.00  0.00    +0.000 C 
ATOM      9  C8  UNL     1     -19.012  80.440 114.383  0.00  0.00    +0.000 C 
ATOM     10  C9  UNL     1     -20.351  82.571 114.229  0.00  0.00    +0.000 C 
ENDROOT
TORSDOF 0
ENDMDL
MODEL 5
REMARK VINA RESULT:      -3.7      1.512      2.522
REMARK  Name = .\Carvone.pdb
REMARK  3 active torsions:
REMARK  status: ('A' for Active; 'I' for Inactive)
REMARK    1  A    between atoms: C1_1  and  C2_2
REMARK    2  A    between atoms: C7_8  and  C8_9
REMARK    3  A    between atoms: C7_8  and  C9_10
REMARK                            x       y       z     vdW  Elec       q    Type
REMARK                         _______ _______ _______ _____ _____    ______ ____
ROOT
ATOM      1  C1  UNL     1     -21.695  80.259 117.882  0.00  0.00    +0.000 C 
ATOM      2  C2  UNL     1     -20.620  80.359 116.828  0.00  0.00    +0.000 C 
ATOM      3  C3  UNL     1     -19.907  79.251 116.568  0.00  0.00    +0.000 C 
ATOM      4  C4  UNL     1     -18.844  79.250 115.562  0.00  0.00    +0.000 C 
ATOM      5  O1  UNL     1     -18.188  78.199 115.336  0.00  0.00    +0.000 OA
ATOM      6  C5  UNL     1     -18.547  80.473 114.823  0.00  0.00    +0.000 C 
ATOM      7  C6  UNL     1     -19.237  81.589 115.057  0.00  0.00    +0.000 C 
ATOM      8  C7  UNL     1     -20.360  81.684 116.084  0.00  0.00    +0.000 C 
ATOM      9  C8  UNL     1     -19.962  82.774 117.098  0.00  0.00    +0.000 C 
ATOM     10  C9  UNL     1     -21.635  82.111 115.331  0.00  0.00    +0.000 C 
ENDROOT
TORSDOF 0
ENDMDL
MODEL 6
REMARK VINA RESULT:      -3.7      1.447      2.842
REMARK  Name = .\Carvone.pdb
REMARK  3 active torsions:
REMARK  status: ('A' for Active; 'I' for Inactive)
REMARK    1  A    between atoms: C1_1  and  C2_2
REMARK    2  A    between atoms: C7_8  and  C8_9
REMARK    3  A    between atoms: C7_8  and  C9_10
REMARK                            x       y       z     vdW  Elec       q    Type
REMARK                         _______ _______ _______ _____ _____    ______ ____
ROOT
ATOM      1  C1  UNL     1     -18.321  82.867 114.375  0.00  0.00    +0.000 C 
ATOM      2  C2  UNL     1     -18.962  81.780 115.202  0.00  0.00    +0.000 C 
ATOM      3  C3  UNL     1     -18.481  80.535 115.062  0.00  0.00    +0.000 C 
ATOM      4  C4  UNL     1     -19.039  79.414 115.821  0.00  0.00    +0.000 C 
ATOM      5  O1  UNL     1     -18.571  78.254 115.673  0.00  0.00    +0.000 OA
ATOM      6  C5  UNL     1     -20.140  79.648 116.751  0.00  0.00    +0.000 C 
ATOM      7  C6  UNL     1     -20.639  80.873 116.913  0.00  0.00    +0.000 C 
ATOM      8  C7  UNL     1     -20.123  82.097 116.166  0.00  0.00    +0.000 C 
ATOM      9  C8  UNL     1     -21.307  82.682 115.371  0.00  0.00    +0.000 C 
ATOM     10  C9  UNL     1     -19.651  83.114 117.223  0.00  0.00    +0.000 C 
ENDROOT
TORSDOF 0
ENDMDL
MODEL 7
REMARK VINA RESULT:      -3.7      1.059      1.178
REMARK  Name = .\Carvone.pdb
REMARK  3 active torsions:
REMARK  status: ('A' for Active; 'I' for Inactive)
REMARK    1  A    between atoms: C1_1  and  C2_2
REMARK    2  A    between atoms: C7_8  and  C8_9
REMARK    3  A    between atoms: C7_8  and  C9_10
REMARK                            x       y       z     vdW  Elec       q    Type
REMARK                         _______ _______ _______ _____ _____    ______ ____
ROOT
ATOM      1  C1  UNL     1     -21.011  83.184 113.908  0.00  0.00    +0.000 C 
ATOM      2  C2  UNL     1     -20.361  81.986 114.556  0.00  0.00    +0.000 C 
ATOM      3  C3  UNL     1     -20.747  81.676 115.805  0.00  0.00    +0.000 C 
ATOM      4  C4  UNL     1     -20.174  80.532 116.515  0.00  0.00    +0.000 C 
ATOM      5  O1  UNL     1     -20.551  80.261 117.686  0.00  0.00    +0.000 OA
ATOM      6  C5  UNL     1     -19.162  79.707 115.861  0.00  0.00    +0.000 C 
ATOM      7  C6  UNL     1     -18.759  79.988 114.622  0.00  0.00    +0.000 C 
ATOM      8  C7  UNL     1     -19.299  81.158 113.807  0.00  0.00    +0.000 C 
ATOM      9  C8  UNL     1     -18.101  82.059 113.450  0.00  0.00    +0.000 C 
ATOM     10  C9  UNL     1     -19.914  80.574 112.521  0.00  0.00    +0.000 C 
ENDROOT
TORSDOF 0
ENDMDL
MODEL 8
REMARK VINA RESULT:      -3.6      2.062      3.139
REMARK  Name = .\Carvone.pdb
REMARK  3 active torsions:
REMARK  status: ('A' for Active; 'I' for Inactive)
REMARK    1  A    between atoms: C1_1  and  C2_2
REMARK    2  A    between atoms: C7_8  and  C8_9
REMARK    3  A    between atoms: C7_8  and  C9_10
REMARK                            x       y       z     vdW  Elec       q    Type
REMARK                         _______ _______ _______ _____ _____    ______ ____
ROOT
ATOM      1  C1  UNL     1     -17.544  83.998 115.047  0.00  0.00    +0.000 C 
ATOM      2  C2  UNL     1     -18.105  82.757 114.396  0.00  0.00    +0.000 C 
ATOM      3  C3  UNL     1     -18.457  81.744 115.203  0.00  0.00    +0.000 C 
ATOM      4  C4  UNL     1     -19.010  80.500 114.665  0.00  0.00    +0.000 C 
ATOM      5  O1  UNL     1     -19.334  79.563 115.441  0.00  0.00    +0.000 OA
ATOM      6  C5  UNL     1     -19.185  80.351 113.223  0.00  0.00    +0.000 C 
ATOM      7  C6  UNL     1     -18.846  81.339 112.395  0.00  0.00    +0.000 C 
ATOM      8  C7  UNL     1     -18.263  82.667 112.866  0.00  0.00    +0.000 C 
ATOM      9  C8  UNL     1     -16.885  82.825 112.195  0.00  0.00    +0.000 C 
ATOM     10  C9  UNL     1     -19.211  83.781 112.379  0.00  0.00    +0.000 C 
ENDROOT
TORSDOF 0
ENDMDL
MODEL 9
REMARK VINA RESULT:      -3.6      2.583      3.626
REMARK  Name = .\Carvone.pdb
REMARK  3 active torsions:
REMARK  status: ('A' for Active; 'I' for Inactive)
REMARK    1  A    between atoms: C1_1  and  C2_2
REMARK    2  A    between atoms: C7_8  and  C8_9
REMARK    3  A    between atoms: C7_8  and  C9_10
REMARK                            x       y       z     vdW  Elec       q    Type
REMARK                         _______ _______ _______ _____ _____    ______ ____
ROOT
ATOM      1  C1  UNL     1     -20.920  82.149 115.941  0.00  0.00    +0.000 C 
ATOM      2  C2  UNL     1     -20.500  81.735 114.552  0.00  0.00    +0.000 C 
ATOM      3  C3  UNL     1     -21.437  81.762 113.591  0.00  0.00    +0.000 C 
ATOM      4  C4  UNL     1     -21.125  81.378 112.214  0.00  0.00    +0.000 C 
ATOM      5  O1  UNL     1     -22.020  81.412 111.329  0.00  0.00    +0.000 OA
ATOM      6  C5  UNL     1     -19.770  80.956 111.870  0.00  0.00    +0.000 C 
ATOM      7  C6  UNL     1     -18.817  80.919 112.801  0.00  0.00    +0.000 C 
ATOM      8  C7  UNL     1     -19.050  81.300 114.259  0.00  0.00    +0.000 C 
ATOM      9  C8  UNL     1     -18.699  80.068 115.116  0.00  0.00    +0.000 C 
ATOM     10  C9  UNL     1     -18.088  82.458 114.589  0.00  0.00    +0.000 C 
ENDROOT
TORSDOF 0
ENDMDL
