MODEL 1
REMARK VINA RESULT:      -3.8      0.000      0.000
REMARK  Name = .\Carvone.pdb
REMARK  3 active torsions:
REMARK  status: ('A' for Active; 'I' for Inactive)
REMARK    1  A    between atoms: C1_1  and  C2_2
REMARK    2  A    between atoms: C7_8  and  C8_9
REMARK    3  A    between atoms: C7_8  and  C9_10
REMARK                            x       y       z     vdW  Elec       q    Type
REMARK                         _______ _______ _______ _____ _____    ______ ____
ROOT
ATOM      1  C1  UNL     1     -10.137  47.790 -35.576  0.00  0.00    +0.000 C 
ATOM      2  C2  UNL     1      -9.769  46.492 -34.899  0.00  0.00    +0.000 C 
ATOM      3  C3  UNL     1      -8.462  46.235 -34.732  0.00  0.00    +0.000 C 
ATOM      4  C4  UNL     1      -8.007  45.002 -34.086  0.00  0.00    +0.000 C 
ATOM      5  O1  UNL     1      -6.775  44.782 -33.939  0.00  0.00    +0.000 OA
ATOM      6  C5  UNL     1      -8.987  44.029 -33.612  0.00  0.00    +0.000 C 
ATOM      7  C6  UNL     1     -10.292  44.256 -33.763  0.00  0.00    +0.000 C 
ATOM      8  C7  UNL     1     -10.856  45.509 -34.423  0.00  0.00    +0.000 C 
ATOM      9  C8  UNL     1     -11.700  45.051 -35.629  0.00  0.00    +0.000 C 
ATOM     10  C9  UNL     1     -11.761  46.204 -33.387  0.00  0.00    +0.000 C 
ENDROOT
TORSDOF 0
ENDMDL
MODEL 2
REMARK VINA RESULT:      -3.8      1.242      2.586
REMARK  Name = .\Carvone.pdb
REMARK  3 active torsions:
REMARK  status: ('A' for Active; 'I' for Inactive)
REMARK    1  A    between atoms: C1_1  and  C2_2
REMARK    2  A    between atoms: C7_8  and  C8_9
REMARK    3  A    between atoms: C7_8  and  C9_10
REMARK                            x       y       z     vdW  Elec       q    Type
REMARK                         _______ _______ _______ _____ _____    ______ ____
ROOT
ATOM      1  C1  UNL     1     -10.227  44.512 -31.399  0.00  0.00    +0.000 C 
ATOM      2  C2  UNL     1      -9.820  45.095 -32.731  0.00  0.00    +0.000 C 
ATOM      3  C3  UNL     1      -8.516  45.352 -32.919  0.00  0.00    +0.000 C 
ATOM      4  C4  UNL     1      -8.026  45.917 -34.177  0.00  0.00    +0.000 C 
ATOM      5  O1  UNL     1      -6.798  46.149 -34.330  0.00  0.00    +0.000 OA
ATOM      6  C5  UNL     1      -8.967  46.210 -35.253  0.00  0.00    +0.000 C 
ATOM      7  C6  UNL     1     -10.268  45.966 -35.098  0.00  0.00    +0.000 C 
ATOM      8  C7  UNL     1     -10.868  45.380 -33.825  0.00  0.00    +0.000 C 
ATOM      9  C8  UNL     1     -11.902  46.394 -33.296  0.00  0.00    +0.000 C 
ATOM     10  C9  UNL     1     -11.576  44.068 -34.214  0.00  0.00    +0.000 C 
ENDROOT
TORSDOF 0
ENDMDL
MODEL 3
REMARK VINA RESULT:      -3.8      2.075      3.606
REMARK  Name = .\Carvone.pdb
REMARK  3 active torsions:
REMARK  status: ('A' for Active; 'I' for Inactive)
REMARK    1  A    between atoms: C1_1  and  C2_2
REMARK    2  A    between atoms: C7_8  and  C8_9
REMARK    3  A    between atoms: C7_8  and  C9_10
REMARK                            x       y       z     vdW  Elec       q    Type
REMARK                         _______ _______ _______ _____ _____    ______ ____
ROOT
ATOM      1  C1  UNL     1      -6.099  46.023 -33.930  0.00  0.00    +0.000 C 
ATOM      2  C2  UNL     1      -7.591  45.836 -33.804  0.00  0.00    +0.000 C 
ATOM      3  C3  UNL     1      -8.361  46.358 -34.772  0.00  0.00    +0.000 C 
ATOM      4  C4  UNL     1      -9.819  46.228 -34.737  0.00  0.00    +0.000 C 
ATOM      5  O1  UNL     1     -10.521  46.725 -35.657  0.00  0.00    +0.000 OA
ATOM      6  C5  UNL     1     -10.455  45.518 -33.631  0.00  0.00    +0.000 C 
ATOM      7  C6  UNL     1      -9.718  44.988 -32.655  0.00  0.00    +0.000 C 
ATOM      8  C7  UNL     1      -8.197  45.075 -32.608  0.00  0.00    +0.000 C 
ATOM      9  C8  UNL     1      -7.819  45.791 -31.297  0.00  0.00    +0.000 C 
ATOM     10  C9  UNL     1      -7.656  43.632 -32.589  0.00  0.00    +0.000 C 
ENDROOT
TORSDOF 0
ENDMDL
MODEL 4
REMARK VINA RESULT:      -3.7      1.210      2.305
REMARK  Name = .\Carvone.pdb
REMARK  3 active torsions:
REMARK  status: ('A' for Active; 'I' for Inactive)
REMARK    1  A    between atoms: C1_1  and  C2_2
REMARK    2  A    between atoms: C7_8  and  C8_9
REMARK    3  A    between atoms: C7_8  and  C9_10
REMARK                            x       y       z     vdW  Elec       q    Type
REMARK                         _______ _______ _______ _____ _____    ______ ____
ROOT
ATOM      1  C1  UNL     1     -11.850  44.594 -36.123  0.00  0.00    +0.000 C 
ATOM      2  C2  UNL     1     -10.603  44.701 -35.280  0.00  0.00    +0.000 C 
ATOM      3  C3  UNL     1      -9.746  43.669 -35.313  0.00  0.00    +0.000 C 
ATOM      4  C4  UNL     1      -8.509  43.681 -34.530  0.00  0.00    +0.000 C 
ATOM      5  O1  UNL     1      -7.720  42.701 -34.577  0.00  0.00    +0.000 OA
ATOM      6  C5  UNL     1      -8.195  44.836 -33.694  0.00  0.00    +0.000 C 
ATOM      7  C6  UNL     1      -9.025  45.877 -33.640  0.00  0.00    +0.000 C 
ATOM      8  C7  UNL     1     -10.333  45.951 -34.419  0.00  0.00    +0.000 C 
ATOM      9  C8  UNL     1     -11.469  46.125 -33.392  0.00  0.00    +0.000 C 
ATOM     10  C9  UNL     1     -10.256  47.195 -35.327  0.00  0.00    +0.000 C 
ENDROOT
TORSDOF 0
ENDMDL
MODEL 5
REMARK VINA RESULT:      -3.6      2.041      3.621
REMARK  Name = .\Carvone.pdb
REMARK  3 active torsions:
REMARK  status: ('A' for Active; 'I' for Inactive)
REMARK    1  A    between atoms: C1_1  and  C2_2
REMARK    2  A    between atoms: C7_8  and  C8_9
REMARK    3  A    between atoms: C7_8  and  C9_10
REMARK                            x       y       z     vdW  Elec       q    Type
REMARK                         _______ _______ _______ _____ _____    ______ ____
ROOT
ATOM      1  C1  UNL     1     -10.868  44.539 -31.976  0.00  0.00    +0.000 C 
ATOM      2  C2  UNL     1      -9.658  45.076 -32.702  0.00  0.00    +0.000 C 
ATOM      3  C3  UNL     1      -9.875  45.771 -33.829  0.00  0.00    +0.000 C 
ATOM      4  C4  UNL     1      -8.766  46.331 -34.602  0.00  0.00    +0.000 C 
ATOM      5  O1  UNL     1      -8.993  46.980 -35.657  0.00  0.00    +0.000 OA
ATOM      6  C5  UNL     1      -7.393  46.134 -34.145  0.00  0.00    +0.000 C 
ATOM      7  C6  UNL     1      -7.145  45.448 -33.029  0.00  0.00    +0.000 C 
ATOM      8  C7  UNL     1      -8.236  44.830 -32.162  0.00  0.00    +0.000 C 
ATOM      9  C8  UNL     1      -7.964  43.314 -32.096  0.00  0.00    +0.000 C 
ATOM     10  C9  UNL     1      -8.105  45.445 -30.755  0.00  0.00    +0.000 C 
ENDROOT
TORSDOF 0
ENDMDL
MODEL 6
REMARK VINA RESULT:      -3.6      2.467      4.394
REMARK  Name = .\Carvone.pdb
REMARK  3 active torsions:
REMARK  status: ('A' for Active; 'I' for Inactive)
REMARK    1  A    between atoms: C1_1  and  C2_2
REMARK    2  A    between atoms: C7_8  and  C8_9
REMARK    3  A    between atoms: C7_8  and  C9_10
REMARK                            x       y       z     vdW  Elec       q    Type
REMARK                         _______ _______ _______ _____ _____    ______ ____
ROOT
ATOM      1  C1  UNL     1      -7.633  42.649 -32.169  0.00  0.00    +0.000 C 
ATOM      2  C2  UNL     1      -6.868  43.783 -32.808  0.00  0.00    +0.000 C 
ATOM      3  C3  UNL     1      -5.625  43.520 -33.242  0.00  0.00    +0.000 C 
ATOM      4  C4  UNL     1      -4.806  44.555 -33.874  0.00  0.00    +0.000 C 
ATOM      5  O1  UNL     1      -3.643  44.285 -34.274  0.00  0.00    +0.000 OA
ATOM      6  C5  UNL     1      -5.344  45.902 -34.040  0.00  0.00    +0.000 C 
ATOM      7  C6  UNL     1      -6.575  46.194 -33.620  0.00  0.00    +0.000 C 
ATOM      8  C7  UNL     1      -7.498  45.182 -32.951  0.00  0.00    +0.000 C 
ATOM      9  C8  UNL     1      -7.849  45.734 -31.555  0.00  0.00    +0.000 C 
ATOM     10  C9  UNL     1      -8.774  45.088 -33.810  0.00  0.00    +0.000 C 
ENDROOT
TORSDOF 0
ENDMDL
MODEL 7
REMARK VINA RESULT:      -3.4      2.002      3.136
REMARK  Name = .\Carvone.pdb
REMARK  3 active torsions:
REMARK  status: ('A' for Active; 'I' for Inactive)
REMARK    1  A    between atoms: C1_1  and  C2_2
REMARK    2  A    between atoms: C7_8  and  C8_9
REMARK    3  A    between atoms: C7_8  and  C9_10
REMARK                            x       y       z     vdW  Elec       q    Type
REMARK                         _______ _______ _______ _____ _____    ______ ____
ROOT
ATOM      1  C1  UNL     1     -11.577  44.602 -32.838  0.00  0.00    +0.000 C 
ATOM      2  C2  UNL     1     -10.117  44.980 -32.763  0.00  0.00    +0.000 C 
ATOM      3  C3  UNL     1      -9.564  45.058 -31.543  0.00  0.00    +0.000 C 
ATOM      4  C4  UNL     1      -8.155  45.417 -31.369  0.00  0.00    +0.000 C 
ATOM      5  O1  UNL     1      -7.657  45.485 -30.214  0.00  0.00    +0.000 OA
ATOM      6  C5  UNL     1      -7.330  45.697 -32.540  0.00  0.00    +0.000 C 
ATOM      7  C6  UNL     1      -7.850  45.627 -33.766  0.00  0.00    +0.000 C 
ATOM      8  C7  UNL     1      -9.305  45.262 -34.042  0.00  0.00    +0.000 C 
ATOM      9  C8  UNL     1      -9.937  46.443 -34.804  0.00  0.00    +0.000 C 
ATOM     10  C9  UNL     1      -9.300  44.007 -34.937  0.00  0.00    +0.000 C 
ENDROOT
TORSDOF 0
ENDMDL
MODEL 8
REMARK VINA RESULT:      -3.4      2.062      2.388
REMARK  Name = .\Carvone.pdb
REMARK  3 active torsions:
REMARK  status: ('A' for Active; 'I' for Inactive)
REMARK    1  A    between atoms: C1_1  and  C2_2
REMARK    2  A    between atoms: C7_8  and  C8_9
REMARK    3  A    between atoms: C7_8  and  C9_10
REMARK                            x       y       z     vdW  Elec       q    Type
REMARK                         _______ _______ _______ _____ _____    ______ ____
ROOT
ATOM      1  C1  UNL     1      -8.686  46.062 -34.875  0.00  0.00    +0.000 C 
ATOM      2  C2  UNL     1      -9.113  45.619 -33.497  0.00  0.00    +0.000 C 
ATOM      3  C3  UNL     1      -8.190  45.664 -32.523  0.00  0.00    +0.000 C 
ATOM      4  C4  UNL     1      -8.510  45.254 -31.154  0.00  0.00    +0.000 C 
ATOM      5  O1  UNL     1      -7.628  45.306 -30.256  0.00  0.00    +0.000 OA
ATOM      6  C5  UNL     1      -9.855  44.786 -30.835  0.00  0.00    +0.000 C 
ATOM      7  C6  UNL     1     -10.793  44.730 -31.780  0.00  0.00    +0.000 C 
ATOM      8  C7  UNL     1     -10.552  45.135 -33.230  0.00  0.00    +0.000 C 
ATOM      9  C8  UNL     1     -10.852  43.903 -34.106  0.00  0.00    +0.000 C 
ATOM     10  C9  UNL     1     -11.545  46.265 -33.561  0.00  0.00    +0.000 C 
ENDROOT
TORSDOF 0
ENDMDL
MODEL 9
REMARK VINA RESULT:      -3.3      1.305      1.886
REMARK  Name = .\Carvone.pdb
REMARK  3 active torsions:
REMARK  status: ('A' for Active; 'I' for Inactive)
REMARK    1  A    between atoms: C1_1  and  C2_2
REMARK    2  A    between atoms: C7_8  and  C8_9
REMARK    3  A    between atoms: C7_8  and  C9_10
REMARK                            x       y       z     vdW  Elec       q    Type
REMARK                         _______ _______ _______ _____ _____    ______ ____
ROOT
ATOM      1  C1  UNL     1     -11.202  45.147 -35.591  0.00  0.00    +0.000 C 
ATOM      2  C2  UNL     1     -10.121  45.242 -34.542  0.00  0.00    +0.000 C 
ATOM      3  C3  UNL     1      -8.910  45.662 -34.942  0.00  0.00    +0.000 C 
ATOM      4  C4  UNL     1      -7.799  45.786 -33.997  0.00  0.00    +0.000 C 
ATOM      5  O1  UNL     1      -6.671  46.182 -34.395  0.00  0.00    +0.000 OA
ATOM      6  C5  UNL     1      -8.002  45.447 -32.592  0.00  0.00    +0.000 C 
ATOM      7  C6  UNL     1      -9.193  45.028 -32.163  0.00  0.00    +0.000 C 
ATOM      8  C7  UNL     1     -10.406  44.869 -33.074  0.00  0.00    +0.000 C 
ATOM      9  C8  UNL     1     -10.848  43.394 -32.993  0.00  0.00    +0.000 C 
ATOM     10  C9  UNL     1     -11.519  45.778 -32.517  0.00  0.00    +0.000 C 
ENDROOT
TORSDOF 0
ENDMDL
