MODEL 1
REMARK VINA RESULT:      -5.1      0.000      0.000
REMARK  Name = .\Carvacrol.pdb
REMARK  5 active torsions:
REMARK  status: ('A' for Active; 'I' for Inactive)
REMARK    1  A    between atoms: C1_1  and  C2_2
REMARK    2  A    between atoms: C2_2  and  C3_3
REMARK    3  A    between atoms: C2_2  and  C4_4
REMARK    4  A    between atoms: C6_6  and  O1_11
REMARK    5  A    between atoms: C7_7  and  C10_10
REMARK                            x       y       z     vdW  Elec       q    Type
REMARK                         _______ _______ _______ _____ _____    ______ ____
ROOT
ATOM      1  C4  UNL     1      -3.369  72.191 110.060  0.00  0.00    +0.000 A 
ATOM      2  C5  UNL     1      -4.698  72.622 109.910  0.00  0.00    +0.000 A 
ATOM      3  C6  UNL     1      -5.003  73.989 109.837  0.00  0.00    +0.000 A 
ATOM      4  C7  UNL     1      -3.973  74.943 109.913  0.00  0.00    +0.000 A 
ATOM      5  C8  UNL     1      -2.645  74.515 110.062  0.00  0.00    +0.000 A 
ATOM      6  C9  UNL     1      -2.345  73.152 110.134  0.00  0.00    +0.000 A 
ATOM      7  C10 UNL     1      -4.292  76.409 109.835  0.00  0.00    +0.000 C 
ENDROOT
BRANCH   1   9
ATOM      8  C1  UNL     1      -1.607  70.471 110.579  0.00  0.00    +0.000 C 
ATOM      9  C2  UNL     1      -3.056  70.708 110.137  0.00  0.00    +0.000 C 
ATOM     10  C3  UNL     1      -4.041  69.983 111.062  0.00  0.00    +0.000 C 
ENDBRANCH   1   9
BRANCH   3  11
ATOM     11  O1  UNL     1      -6.327  74.402 109.689  0.00  0.00    +0.000 OA
ATOM     12  H14 UNL     1      -7.067  73.745 109.471  0.00  0.00    +0.000 HD
ENDBRANCH   3  11
TORSDOF 2
ENDMDL
MODEL 2
REMARK VINA RESULT:      -5.0      2.503      4.548
REMARK  Name = .\Carvacrol.pdb
REMARK  5 active torsions:
REMARK  status: ('A' for Active; 'I' for Inactive)
REMARK    1  A    between atoms: C1_1  and  C2_2
REMARK    2  A    between atoms: C2_2  and  C3_3
REMARK    3  A    between atoms: C2_2  and  C4_4
REMARK    4  A    between atoms: C6_6  and  O1_11
REMARK    5  A    between atoms: C7_7  and  C10_10
REMARK                            x       y       z     vdW  Elec       q    Type
REMARK                         _______ _______ _______ _____ _____    ______ ____
ROOT
ATOM      1  C4  UNL     1      -3.368  74.531 110.605  0.00  0.00    +0.000 A 
ATOM      2  C5  UNL     1      -2.990  74.576 111.958  0.00  0.00    +0.000 A 
ATOM      3  C6  UNL     1      -2.134  73.603 112.495  0.00  0.00    +0.000 A 
ATOM      4  C7  UNL     1      -1.646  72.569 111.677  0.00  0.00    +0.000 A 
ATOM      5  C8  UNL     1      -2.022  72.522 110.326  0.00  0.00    +0.000 A 
ATOM      6  C9  UNL     1      -2.875  73.494 109.795  0.00  0.00    +0.000 A 
ATOM      7  C10 UNL     1      -0.729  71.523 112.245  0.00  0.00    +0.000 C 
ENDROOT
BRANCH   1   9
ATOM      8  C1  UNL     1      -3.820  76.064 108.662  0.00  0.00    +0.000 C 
ATOM      9  C2  UNL     1      -4.295  75.592 110.041  0.00  0.00    +0.000 C 
ATOM     10  C3  UNL     1      -5.743  75.088 109.984  0.00  0.00    +0.000 C 
ENDBRANCH   1   9
BRANCH   3  11
ATOM     11  O1  UNL     1      -1.768  73.660 113.840  0.00  0.00    +0.000 OA
ATOM     12  H14 UNL     1      -0.851  73.983 114.128  0.00  0.00    +0.000 HD
ENDBRANCH   3  11
TORSDOF 2
ENDMDL
MODEL 3
REMARK VINA RESULT:      -4.8      1.342      2.354
REMARK  Name = .\Carvacrol.pdb
REMARK  5 active torsions:
REMARK  status: ('A' for Active; 'I' for Inactive)
REMARK    1  A    between atoms: C1_1  and  C2_2
REMARK    2  A    between atoms: C2_2  and  C3_3
REMARK    3  A    between atoms: C2_2  and  C4_4
REMARK    4  A    between atoms: C6_6  and  O1_11
REMARK    5  A    between atoms: C7_7  and  C10_10
REMARK                            x       y       z     vdW  Elec       q    Type
REMARK                         _______ _______ _______ _____ _____    ______ ____
ROOT
ATOM      1  C4  UNL     1      -2.983  70.448 111.121  0.00  0.00    +0.000 A 
ATOM      2  C5  UNL     1      -4.180  70.975 110.608  0.00  0.00    +0.000 A 
ATOM      3  C6  UNL     1      -4.213  72.257 110.039  0.00  0.00    +0.000 A 
ATOM      4  C7  UNL     1      -3.039  73.029 109.979  0.00  0.00    +0.000 A 
ATOM      5  C8  UNL     1      -1.843  72.504 110.491  0.00  0.00    +0.000 A 
ATOM      6  C9  UNL     1      -1.814  71.227 111.057  0.00  0.00    +0.000 A 
ATOM      7  C10 UNL     1      -3.066  74.402 109.371  0.00  0.00    +0.000 C 
ENDROOT
BRANCH   1   9
ATOM      8  C1  UNL     1      -4.224  68.272 111.349  0.00  0.00    +0.000 C 
ATOM      9  C2  UNL     1      -2.966  69.060 111.733  0.00  0.00    +0.000 C 
ATOM     10  C3  UNL     1      -1.695  68.298 111.340  0.00  0.00    +0.000 C 
ENDBRANCH   1   9
BRANCH   3  11
ATOM     11  O1  UNL     1      -5.409  72.767 109.534  0.00  0.00    +0.000 OA
ATOM     12  H14 UNL     1      -6.279  72.251 109.603  0.00  0.00    +0.000 HD
ENDBRANCH   3  11
TORSDOF 2
ENDMDL
MODEL 4
REMARK VINA RESULT:      -4.7      2.029      4.298
REMARK  Name = .\Carvacrol.pdb
REMARK  5 active torsions:
REMARK  status: ('A' for Active; 'I' for Inactive)
REMARK    1  A    between atoms: C1_1  and  C2_2
REMARK    2  A    between atoms: C2_2  and  C3_3
REMARK    3  A    between atoms: C2_2  and  C4_4
REMARK    4  A    between atoms: C6_6  and  O1_11
REMARK    5  A    between atoms: C7_7  and  C10_10
REMARK                            x       y       z     vdW  Elec       q    Type
REMARK                         _______ _______ _______ _____ _____    ______ ____
ROOT
ATOM      1  C4  UNL     1      -3.673  74.199 110.756  0.00  0.00    +0.000 A 
ATOM      2  C5  UNL     1      -3.608  73.033 109.975  0.00  0.00    +0.000 A 
ATOM      3  C6  UNL     1      -2.742  71.986 110.321  0.00  0.00    +0.000 A 
ATOM      4  C7  UNL     1      -1.927  72.096 111.461  0.00  0.00    +0.000 A 
ATOM      5  C8  UNL     1      -1.990  73.260 112.243  0.00  0.00    +0.000 A 
ATOM      6  C9  UNL     1      -2.854  74.301 111.895  0.00  0.00    +0.000 A 
ATOM      7  C10 UNL     1      -0.997  70.979 111.838  0.00  0.00    +0.000 C 
ENDROOT
BRANCH   1   9
ATOM      8  C1  UNL     1      -4.130  76.036 109.100  0.00  0.00    +0.000 C 
ATOM      9  C2  UNL     1      -4.615  75.323 110.367  0.00  0.00    +0.000 C 
ATOM     10  C3  UNL     1      -6.049  74.808 110.197  0.00  0.00    +0.000 C 
ENDBRANCH   1   9
BRANCH   3  11
ATOM     11  O1  UNL     1      -2.688  70.835 109.535  0.00  0.00    +0.000 OA
ATOM     12  H14 UNL     1      -2.013  70.100 109.713  0.00  0.00    +0.000 HD
ENDBRANCH   3  11
TORSDOF 2
ENDMDL
MODEL 5
REMARK VINA RESULT:      -4.6      2.253      4.736
REMARK  Name = .\Carvacrol.pdb
REMARK  5 active torsions:
REMARK  status: ('A' for Active; 'I' for Inactive)
REMARK    1  A    between atoms: C1_1  and  C2_2
REMARK    2  A    between atoms: C2_2  and  C3_3
REMARK    3  A    between atoms: C2_2  and  C4_4
REMARK    4  A    between atoms: C6_6  and  O1_11
REMARK    5  A    between atoms: C7_7  and  C10_10
REMARK                            x       y       z     vdW  Elec       q    Type
REMARK                         _______ _______ _______ _____ _____    ______ ____
ROOT
ATOM      1  C4  UNL     1      -3.626  73.366 110.212  0.00  0.00    +0.000 A 
ATOM      2  C5  UNL     1      -2.577  73.364 111.148  0.00  0.00    +0.000 A 
ATOM      3  C6  UNL     1      -2.102  72.159 111.688  0.00  0.00    +0.000 A 
ATOM      4  C7  UNL     1      -2.677  70.938 111.294  0.00  0.00    +0.000 A 
ATOM      5  C8  UNL     1      -3.724  70.939 110.360  0.00  0.00    +0.000 A 
ATOM      6  C9  UNL     1      -4.194  72.140 109.824  0.00  0.00    +0.000 A 
ATOM      7  C10 UNL     1      -2.173  69.645 111.868  0.00  0.00    +0.000 C 
ENDROOT
BRANCH   1   9
ATOM      8  C1  UNL     1      -5.469  75.078 110.264  0.00  0.00    +0.000 C 
ATOM      9  C2  UNL     1      -4.128  74.678 109.638  0.00  0.00    +0.000 C 
ATOM     10  C3  UNL     1      -3.086  75.791 109.808  0.00  0.00    +0.000 C 
ENDBRANCH   1   9
BRANCH   3  11
ATOM     11  O1  UNL     1      -1.061  72.173 112.616  0.00  0.00    +0.000 OA
ATOM     12  H14 UNL     1      -1.207  71.905 113.583  0.00  0.00    +0.000 HD
ENDBRANCH   3  11
TORSDOF 2
ENDMDL
MODEL 6
REMARK VINA RESULT:      -4.6      1.752      2.330
REMARK  Name = .\Carvacrol.pdb
REMARK  5 active torsions:
REMARK  status: ('A' for Active; 'I' for Inactive)
REMARK    1  A    between atoms: C1_1  and  C2_2
REMARK    2  A    between atoms: C2_2  and  C3_3
REMARK    3  A    between atoms: C2_2  and  C4_4
REMARK    4  A    between atoms: C6_6  and  O1_11
REMARK    5  A    between atoms: C7_7  and  C10_10
REMARK                            x       y       z     vdW  Elec       q    Type
REMARK                         _______ _______ _______ _____ _____    ______ ____
ROOT
ATOM      1  C4  UNL     1      -1.921  72.560 111.208  0.00  0.00    +0.000 A 
ATOM      2  C5  UNL     1      -2.230  72.886 109.877  0.00  0.00    +0.000 A 
ATOM      3  C6  UNL     1      -2.971  74.038 109.575  0.00  0.00    +0.000 A 
ATOM      4  C7  UNL     1      -3.413  74.880 110.611  0.00  0.00    +0.000 A 
ATOM      5  C8  UNL     1      -3.105  74.556 111.942  0.00  0.00    +0.000 A 
ATOM      6  C9  UNL     1      -2.367  73.407 112.238  0.00  0.00    +0.000 A 
ATOM      7  C10 UNL     1      -4.207  76.115 110.296  0.00  0.00    +0.000 C 
ENDROOT
BRANCH   1   9
ATOM      8  C1  UNL     1      -2.033  70.088 111.664  0.00  0.00    +0.000 C 
ATOM      9  C2  UNL     1      -1.118  71.309 111.516  0.00  0.00    +0.000 C 
ATOM     10  C3  UNL     1      -0.041  71.067 110.451  0.00  0.00    +0.000 C 
ENDBRANCH   1   9
BRANCH   3  11
ATOM     11  O1  UNL     1      -3.271  74.349 108.249  0.00  0.00    +0.000 OA
ATOM     12  H14 UNL     1      -2.565  74.314 107.522  0.00  0.00    +0.000 HD
ENDBRANCH   3  11
TORSDOF 2
ENDMDL
MODEL 7
REMARK VINA RESULT:      -4.6      1.833      2.434
REMARK  Name = .\Carvacrol.pdb
REMARK  5 active torsions:
REMARK  status: ('A' for Active; 'I' for Inactive)
REMARK    1  A    between atoms: C1_1  and  C2_2
REMARK    2  A    between atoms: C2_2  and  C3_3
REMARK    3  A    between atoms: C2_2  and  C4_4
REMARK    4  A    between atoms: C6_6  and  O1_11
REMARK    5  A    between atoms: C7_7  and  C10_10
REMARK                            x       y       z     vdW  Elec       q    Type
REMARK                         _______ _______ _______ _____ _____    ______ ____
ROOT
ATOM      1  C4  UNL     1      -3.271  71.568 110.793  0.00  0.00    +0.000 A 
ATOM      2  C5  UNL     1      -2.660  72.485 111.665  0.00  0.00    +0.000 A 
ATOM      3  C6  UNL     1      -2.936  73.857 111.570  0.00  0.00    +0.000 A 
ATOM      4  C7  UNL     1      -3.831  74.327 110.594  0.00  0.00    +0.000 A 
ATOM      5  C8  UNL     1      -4.442  73.414 109.721  0.00  0.00    +0.000 A 
ATOM      6  C9  UNL     1      -4.166  72.048 109.819  0.00  0.00    +0.000 A 
ATOM      7  C10 UNL     1      -4.131  75.795 110.486  0.00  0.00    +0.000 C 
ENDROOT
BRANCH   1   9
ATOM      8  C1  UNL     1      -4.231  69.279 111.200  0.00  0.00    +0.000 C 
ATOM      9  C2  UNL     1      -2.962  70.087 110.909  0.00  0.00    +0.000 C 
ATOM     10  C3  UNL     1      -2.252  69.570 109.652  0.00  0.00    +0.000 C 
ENDBRANCH   1   9
BRANCH   3  11
ATOM     11  O1  UNL     1      -2.321  74.755 112.443  0.00  0.00    +0.000 OA
ATOM     12  H14 UNL     1      -1.681  74.442 113.164  0.00  0.00    +0.000 HD
ENDBRANCH   3  11
TORSDOF 2
ENDMDL
MODEL 8
REMARK VINA RESULT:      -4.5      4.995      6.345
REMARK  Name = .\Carvacrol.pdb
REMARK  5 active torsions:
REMARK  status: ('A' for Active; 'I' for Inactive)
REMARK    1  A    between atoms: C1_1  and  C2_2
REMARK    2  A    between atoms: C2_2  and  C3_3
REMARK    3  A    between atoms: C2_2  and  C4_4
REMARK    4  A    between atoms: C6_6  and  O1_11
REMARK    5  A    between atoms: C7_7  and  C10_10
REMARK                            x       y       z     vdW  Elec       q    Type
REMARK                         _______ _______ _______ _____ _____    ______ ____
ROOT
ATOM      1  C4  UNL     1      -2.538  67.927 109.861  0.00  0.00    +0.000 A 
ATOM      2  C5  UNL     1      -3.068  67.480 108.639  0.00  0.00    +0.000 A 
ATOM      3  C6  UNL     1      -2.286  67.486 107.474  0.00  0.00    +0.000 A 
ATOM      4  C7  UNL     1      -0.958  67.944 107.522  0.00  0.00    +0.000 A 
ATOM      5  C8  UNL     1      -0.426  68.391 108.742  0.00  0.00    +0.000 A 
ATOM      6  C9  UNL     1      -1.208  68.383 109.900  0.00  0.00    +0.000 A 
ATOM      7  C10 UNL     1      -0.115  67.954 106.279  0.00  0.00    +0.000 C 
ENDROOT
BRANCH   1   9
ATOM      8  C1  UNL     1      -3.934  69.314 111.428  0.00  0.00    +0.000 C 
ATOM      9  C2  UNL     1      -3.397  67.913 111.111  0.00  0.00    +0.000 C 
ATOM     10  C3  UNL     1      -4.540  66.898 110.986  0.00  0.00    +0.000 C 
ENDBRANCH   1   9
BRANCH   3  11
ATOM     11  O1  UNL     1      -2.827  67.040 106.268  0.00  0.00    +0.000 OA
ATOM     12  H14 UNL     1      -2.438  66.245 105.773  0.00  0.00    +0.000 HD
ENDBRANCH   3  11
TORSDOF 2
ENDMDL
MODEL 9
REMARK VINA RESULT:      -4.5      2.986      5.365
REMARK  Name = .\Carvacrol.pdb
REMARK  5 active torsions:
REMARK  status: ('A' for Active; 'I' for Inactive)
REMARK    1  A    between atoms: C1_1  and  C2_2
REMARK    2  A    between atoms: C2_2  and  C3_3
REMARK    3  A    between atoms: C2_2  and  C4_4
REMARK    4  A    between atoms: C6_6  and  O1_11
REMARK    5  A    between atoms: C7_7  and  C10_10
REMARK                            x       y       z     vdW  Elec       q    Type
REMARK                         _______ _______ _______ _____ _____    ______ ____
ROOT
ATOM      1  C4  UNL     1      -2.620  71.504 111.089  0.00  0.00    +0.000 A 
ATOM      2  C5  UNL     1      -1.679  70.506 111.394  0.00  0.00    +0.000 A 
ATOM      3  C6  UNL     1      -2.066  69.161 111.486  0.00  0.00    +0.000 A 
ATOM      4  C7  UNL     1      -3.408  68.801 111.273  0.00  0.00    +0.000 A 
ATOM      5  C8  UNL     1      -4.349  69.796 110.968  0.00  0.00    +0.000 A 
ATOM      6  C9  UNL     1      -3.960  71.134 110.876  0.00  0.00    +0.000 A 
ATOM      7  C10 UNL     1      -3.830  67.362 111.370  0.00  0.00    +0.000 C 
ENDROOT
BRANCH   1   9
ATOM      8  C1  UNL     1      -2.779  73.630 109.752  0.00  0.00    +0.000 C 
ATOM      9  C2  UNL     1      -2.184  72.955 110.993  0.00  0.00    +0.000 C 
ATOM     10  C3  UNL     1      -2.545  73.726 112.268  0.00  0.00    +0.000 C 
ENDBRANCH   1   9
BRANCH   3  11
ATOM     11  O1  UNL     1      -1.121  68.182 111.791  0.00  0.00    +0.000 OA
ATOM     12  H14 UNL     1      -0.480  67.825 111.091  0.00  0.00    +0.000 HD
ENDBRANCH   3  11
TORSDOF 2
ENDMDL
