MODEL 1
REMARK VINA RESULT:      -5.0      0.000      0.000
REMARK  Name = .\Carvacrol.pdb
REMARK  5 active torsions:
REMARK  status: ('A' for Active; 'I' for Inactive)
REMARK    1  A    between atoms: C1_1  and  C2_2
REMARK    2  A    between atoms: C2_2  and  C3_3
REMARK    3  A    between atoms: C2_2  and  C4_4
REMARK    4  A    between atoms: C6_6  and  O1_11
REMARK    5  A    between atoms: C7_7  and  C10_10
REMARK                            x       y       z     vdW  Elec       q    Type
REMARK                         _______ _______ _______ _____ _____    ______ ____
ROOT
ATOM      1  C4  UNL     1     -10.634  95.493 112.644  0.00  0.00    +0.000 A 
ATOM      2  C5  UNL     1     -11.203  94.240 112.361  0.00  0.00    +0.000 A 
ATOM      3  C6  UNL     1     -10.404  93.171 111.931  0.00  0.00    +0.000 A 
ATOM      4  C7  UNL     1      -9.018  93.347 111.779  0.00  0.00    +0.000 A 
ATOM      5  C8  UNL     1      -8.447  94.598 112.061  0.00  0.00    +0.000 A 
ATOM      6  C9  UNL     1      -9.246  95.660 112.489  0.00  0.00    +0.000 A 
ATOM      7  C10 UNL     1      -8.155  92.206 111.319  0.00  0.00    +0.000 C 
ENDROOT
BRANCH   1   9
ATOM      8  C1  UNL     1     -11.010  97.979 112.559  0.00  0.00    +0.000 C 
ATOM      9  C2  UNL     1     -11.513  96.639 113.108  0.00  0.00    +0.000 C 
ATOM     10  C3  UNL     1     -12.979  96.401 112.727  0.00  0.00    +0.000 C 
ENDBRANCH   1   9
BRANCH   3  11
ATOM     11  O1  UNL     1     -10.984  91.933 111.653  0.00  0.00    +0.000 OA
ATOM     12  H14 UNL     1     -10.423  91.095 111.548  0.00  0.00    +0.000 HD
ENDBRANCH   3  11
TORSDOF 2
ENDMDL
MODEL 2
REMARK VINA RESULT:      -4.9      1.354      4.083
REMARK  Name = .\Carvacrol.pdb
REMARK  5 active torsions:
REMARK  status: ('A' for Active; 'I' for Inactive)
REMARK    1  A    between atoms: C1_1  and  C2_2
REMARK    2  A    between atoms: C2_2  and  C3_3
REMARK    3  A    between atoms: C2_2  and  C4_4
REMARK    4  A    between atoms: C6_6  and  O1_11
REMARK    5  A    between atoms: C7_7  and  C10_10
REMARK                            x       y       z     vdW  Elec       q    Type
REMARK                         _______ _______ _______ _____ _____    ______ ____
ROOT
ATOM      1  C4  UNL     1      -9.722  93.959 112.250  0.00  0.00    +0.000 A 
ATOM      2  C5  UNL     1     -10.956  93.432 111.832  0.00  0.00    +0.000 A 
ATOM      3  C6  UNL     1     -12.149  94.132 112.065  0.00  0.00    +0.000 A 
ATOM      4  C7  UNL     1     -12.117  95.374 112.723  0.00  0.00    +0.000 A 
ATOM      5  C8  UNL     1     -10.886  95.902 113.142  0.00  0.00    +0.000 A 
ATOM      6  C9  UNL     1      -9.700  95.201 112.907  0.00  0.00    +0.000 A 
ATOM      7  C10 UNL     1     -13.391  96.129 112.976  0.00  0.00    +0.000 C 
ENDROOT
BRANCH   1   9
ATOM      8  C1  UNL     1      -7.368  93.534 113.029  0.00  0.00    +0.000 C 
ATOM      9  C2  UNL     1      -8.441  93.188 111.990  0.00  0.00    +0.000 C 
ATOM     10  C3  UNL     1      -8.703  91.677 111.948  0.00  0.00    +0.000 C 
ENDBRANCH   1   9
BRANCH   3  11
ATOM     11  O1  UNL     1     -13.367  93.597 111.645  0.00  0.00    +0.000 OA
ATOM     12  H14 UNL     1     -13.750  92.756 112.063  0.00  0.00    +0.000 HD
ENDBRANCH   3  11
TORSDOF 2
ENDMDL
MODEL 3
REMARK VINA RESULT:      -4.9      1.976      4.537
REMARK  Name = .\Carvacrol.pdb
REMARK  5 active torsions:
REMARK  status: ('A' for Active; 'I' for Inactive)
REMARK    1  A    between atoms: C1_1  and  C2_2
REMARK    2  A    between atoms: C2_2  and  C3_3
REMARK    3  A    between atoms: C2_2  and  C4_4
REMARK    4  A    between atoms: C6_6  and  O1_11
REMARK    5  A    between atoms: C7_7  and  C10_10
REMARK                            x       y       z     vdW  Elec       q    Type
REMARK                         _______ _______ _______ _____ _____    ______ ____
ROOT
ATOM      1  C4  UNL     1      -9.752  93.952 112.226  0.00  0.00    +0.000 A 
ATOM      2  C5  UNL     1      -9.754  95.196 112.878  0.00  0.00    +0.000 A 
ATOM      3  C6  UNL     1     -10.956  95.880 113.113  0.00  0.00    +0.000 A 
ATOM      4  C7  UNL     1     -12.175  95.320 112.694  0.00  0.00    +0.000 A 
ATOM      5  C8  UNL     1     -12.176  94.077 112.042  0.00  0.00    +0.000 A 
ATOM      6  C9  UNL     1     -10.977  93.399 111.811  0.00  0.00    +0.000 A 
ATOM      7  C10 UNL     1     -13.467  96.046 112.942  0.00  0.00    +0.000 C 
ENDROOT
BRANCH   1   9
ATOM      8  C1  UNL     1      -7.409  93.568 113.060  0.00  0.00    +0.000 C 
ATOM      9  C2  UNL     1      -8.442  93.226 111.980  0.00  0.00    +0.000 C 
ATOM     10  C3  UNL     1      -8.659  91.711 111.884  0.00  0.00    +0.000 C 
ENDBRANCH   1   9
BRANCH   3  11
ATOM     11  O1  UNL     1     -10.942  97.115 113.761  0.00  0.00    +0.000 OA
ATOM     12  H14 UNL     1     -10.090  97.500 114.154  0.00  0.00    +0.000 HD
ENDBRANCH   3  11
TORSDOF 2
ENDMDL
MODEL 4
REMARK VINA RESULT:      -4.7      0.780      1.341
REMARK  Name = .\Carvacrol.pdb
REMARK  5 active torsions:
REMARK  status: ('A' for Active; 'I' for Inactive)
REMARK    1  A    between atoms: C1_1  and  C2_2
REMARK    2  A    between atoms: C2_2  and  C3_3
REMARK    3  A    between atoms: C2_2  and  C4_4
REMARK    4  A    between atoms: C6_6  and  O1_11
REMARK    5  A    between atoms: C7_7  and  C10_10
REMARK                            x       y       z     vdW  Elec       q    Type
REMARK                         _______ _______ _______ _____ _____    ______ ____
ROOT
ATOM      1  C4  UNL     1     -11.335  95.471 112.328  0.00  0.00    +0.000 A 
ATOM      2  C5  UNL     1     -11.572  94.111 112.066  0.00  0.00    +0.000 A 
ATOM      3  C6  UNL     1     -10.503  93.220 111.886  0.00  0.00    +0.000 A 
ATOM      4  C7  UNL     1      -9.179  93.686 111.966  0.00  0.00    +0.000 A 
ATOM      5  C8  UNL     1      -8.941  95.044 112.228  0.00  0.00    +0.000 A 
ATOM      6  C9  UNL     1     -10.008  95.928 112.407  0.00  0.00    +0.000 A 
ATOM      7  C10 UNL     1      -8.030  92.738 111.774  0.00  0.00    +0.000 C 
ENDROOT
BRANCH   1   9
ATOM      8  C1  UNL     1     -13.766  95.664 112.949  0.00  0.00    +0.000 C 
ATOM      9  C2  UNL     1     -12.503  96.421 112.521  0.00  0.00    +0.000 C 
ATOM     10  C3  UNL     1     -12.156  97.529 113.523  0.00  0.00    +0.000 C 
ENDBRANCH   1   9
BRANCH   3  11
ATOM     11  O1  UNL     1     -10.754  91.873 111.626  0.00  0.00    +0.000 OA
ATOM     12  H14 UNL     1     -10.711  91.496 110.686  0.00  0.00    +0.000 HD
ENDBRANCH   3  11
TORSDOF 2
ENDMDL
MODEL 5
REMARK VINA RESULT:      -4.7      1.603      2.189
REMARK  Name = .\Carvacrol.pdb
REMARK  5 active torsions:
REMARK  status: ('A' for Active; 'I' for Inactive)
REMARK    1  A    between atoms: C1_1  and  C2_2
REMARK    2  A    between atoms: C2_2  and  C3_3
REMARK    3  A    between atoms: C2_2  and  C4_4
REMARK    4  A    between atoms: C6_6  and  O1_11
REMARK    5  A    between atoms: C7_7  and  C10_10
REMARK                            x       y       z     vdW  Elec       q    Type
REMARK                         _______ _______ _______ _____ _____    ______ ____
ROOT
ATOM      1  C4  UNL     1      -9.870  95.372 112.477  0.00  0.00    +0.000 A 
ATOM      2  C5  UNL     1      -8.554  94.896 112.608  0.00  0.00    +0.000 A 
ATOM      3  C6  UNL     1      -8.262  93.536 112.426  0.00  0.00    +0.000 A 
ATOM      4  C7  UNL     1      -9.292  92.634 112.109  0.00  0.00    +0.000 A 
ATOM      5  C8  UNL     1     -10.607  93.106 111.977  0.00  0.00    +0.000 A 
ATOM      6  C9  UNL     1     -10.893  94.462 112.159  0.00  0.00    +0.000 A 
ATOM      7  C10 UNL     1      -8.988  91.176 111.913  0.00  0.00    +0.000 C 
ENDROOT
BRANCH   1   9
ATOM      8  C1  UNL     1      -9.875  97.647 111.402  0.00  0.00    +0.000 C 
ATOM      9  C2  UNL     1     -10.167  96.846 112.677  0.00  0.00    +0.000 C 
ATOM     10  C3  UNL     1     -11.612  97.060 113.145  0.00  0.00    +0.000 C 
ENDBRANCH   1   9
BRANCH   3  11
ATOM     11  O1  UNL     1      -6.951  93.079 112.561  0.00  0.00    +0.000 OA
ATOM     12  H14 UNL     1      -6.371  92.882 111.753  0.00  0.00    +0.000 HD
ENDBRANCH   3  11
TORSDOF 2
ENDMDL
MODEL 6
REMARK VINA RESULT:      -4.6      2.320      4.642
REMARK  Name = .\Carvacrol.pdb
REMARK  5 active torsions:
REMARK  status: ('A' for Active; 'I' for Inactive)
REMARK    1  A    between atoms: C1_1  and  C2_2
REMARK    2  A    between atoms: C2_2  and  C3_3
REMARK    3  A    between atoms: C2_2  and  C4_4
REMARK    4  A    between atoms: C6_6  and  O1_11
REMARK    5  A    between atoms: C7_7  and  C10_10
REMARK                            x       y       z     vdW  Elec       q    Type
REMARK                         _______ _______ _______ _____ _____    ______ ____
ROOT
ATOM      1  C4  UNL     1      -9.613  95.032 112.571  0.00  0.00    +0.000 A 
ATOM      2  C5  UNL     1      -8.820  95.662 111.597  0.00  0.00    +0.000 A 
ATOM      3  C6  UNL     1      -9.022  97.012 111.274  0.00  0.00    +0.000 A 
ATOM      4  C7  UNL     1     -10.026  97.748 111.928  0.00  0.00    +0.000 A 
ATOM      5  C8  UNL     1     -10.818  97.120 112.901  0.00  0.00    +0.000 A 
ATOM      6  C9  UNL     1     -10.614  95.776 113.220  0.00  0.00    +0.000 A 
ATOM      7  C10 UNL     1     -10.247  99.194 111.587  0.00  0.00    +0.000 C 
ENDROOT
BRANCH   1   9
ATOM      8  C1  UNL     1      -9.818  92.661 111.754  0.00  0.00    +0.000 C 
ATOM      9  C2  UNL     1      -9.381  93.570 112.908  0.00  0.00    +0.000 C 
ATOM     10  C3  UNL     1      -7.918  93.315 113.289  0.00  0.00    +0.000 C 
ENDBRANCH   1   9
BRANCH   3  11
ATOM     11  O1  UNL     1      -8.228  97.624 110.304  0.00  0.00    +0.000 OA
ATOM     12  H14 UNL     1      -8.623  98.249 109.610  0.00  0.00    +0.000 HD
ENDBRANCH   3  11
TORSDOF 2
ENDMDL
MODEL 7
REMARK VINA RESULT:      -4.5      1.659      4.277
REMARK  Name = .\Carvacrol.pdb
REMARK  5 active torsions:
REMARK  status: ('A' for Active; 'I' for Inactive)
REMARK    1  A    between atoms: C1_1  and  C2_2
REMARK    2  A    between atoms: C2_2  and  C3_3
REMARK    3  A    between atoms: C2_2  and  C4_4
REMARK    4  A    between atoms: C6_6  and  O1_11
REMARK    5  A    between atoms: C7_7  and  C10_10
REMARK                            x       y       z     vdW  Elec       q    Type
REMARK                         _______ _______ _______ _____ _____    ______ ____
ROOT
ATOM      1  C4  UNL     1      -9.435  94.505 112.413  0.00  0.00    +0.000 A 
ATOM      2  C5  UNL     1     -10.770  94.418 112.842  0.00  0.00    +0.000 A 
ATOM      3  C6  UNL     1     -11.612  95.539 112.794  0.00  0.00    +0.000 A 
ATOM      4  C7  UNL     1     -11.122  96.765 112.312  0.00  0.00    +0.000 A 
ATOM      5  C8  UNL     1      -9.788  96.854 111.883  0.00  0.00    +0.000 A 
ATOM      6  C9  UNL     1      -8.953  95.736 111.933  0.00  0.00    +0.000 A 
ATOM      7  C10 UNL     1     -12.017  97.970 112.258  0.00  0.00    +0.000 C 
ENDROOT
BRANCH   1   9
ATOM      8  C1  UNL     1      -8.302  92.702 111.073  0.00  0.00    +0.000 C 
ATOM      9  C2  UNL     1      -8.538  93.283 112.473  0.00  0.00    +0.000 C 
ATOM     10  C3  UNL     1      -7.210  93.604 113.169  0.00  0.00    +0.000 C 
ENDBRANCH   1   9
BRANCH   3  11
ATOM     11  O1  UNL     1     -12.935  95.438 113.224  0.00  0.00    +0.000 OA
ATOM     12  H14 UNL     1     -13.637  94.952 112.676  0.00  0.00    +0.000 HD
ENDBRANCH   3  11
TORSDOF 2
ENDMDL
MODEL 8
REMARK VINA RESULT:      -4.4      1.240      1.751
REMARK  Name = .\Carvacrol.pdb
REMARK  5 active torsions:
REMARK  status: ('A' for Active; 'I' for Inactive)
REMARK    1  A    between atoms: C1_1  and  C2_2
REMARK    2  A    between atoms: C2_2  and  C3_3
REMARK    3  A    between atoms: C2_2  and  C4_4
REMARK    4  A    between atoms: C6_6  and  O1_11
REMARK    5  A    between atoms: C7_7  and  C10_10
REMARK                            x       y       z     vdW  Elec       q    Type
REMARK                         _______ _______ _______ _____ _____    ______ ____
ROOT
ATOM      1  C4  UNL     1     -12.192  95.487 112.535  0.00  0.00    +0.000 A 
ATOM      2  C5  UNL     1     -12.073  94.206 111.969  0.00  0.00    +0.000 A 
ATOM      3  C6  UNL     1     -10.886  93.471 112.104  0.00  0.00    +0.000 A 
ATOM      4  C7  UNL     1      -9.799  94.016 112.811  0.00  0.00    +0.000 A 
ATOM      5  C8  UNL     1      -9.916  95.295 113.376  0.00  0.00    +0.000 A 
ATOM      6  C9  UNL     1     -11.100  96.024 113.240  0.00  0.00    +0.000 A 
ATOM      7  C10 UNL     1      -8.525  93.235 112.959  0.00  0.00    +0.000 C 
ENDROOT
BRANCH   1   9
ATOM      8  C1  UNL     1     -13.492  97.507 113.283  0.00  0.00    +0.000 C 
ATOM      9  C2  UNL     1     -13.484  96.269 112.379  0.00  0.00    +0.000 C 
ATOM     10  C3  UNL     1     -13.725  96.652 110.914  0.00  0.00    +0.000 C 
ENDBRANCH   1   9
BRANCH   3  11
ATOM     11  O1  UNL     1     -10.783  92.201 111.537  0.00  0.00    +0.000 OA
ATOM     12  H14 UNL     1     -11.404  91.898 110.795  0.00  0.00    +0.000 HD
ENDBRANCH   3  11
TORSDOF 2
ENDMDL
MODEL 9
REMARK VINA RESULT:      -4.0      2.226      3.404
REMARK  Name = .\Carvacrol.pdb
REMARK  5 active torsions:
REMARK  status: ('A' for Active; 'I' for Inactive)
REMARK    1  A    between atoms: C1_1  and  C2_2
REMARK    2  A    between atoms: C2_2  and  C3_3
REMARK    3  A    between atoms: C2_2  and  C4_4
REMARK    4  A    between atoms: C6_6  and  O1_11
REMARK    5  A    between atoms: C7_7  and  C10_10
REMARK                            x       y       z     vdW  Elec       q    Type
REMARK                         _______ _______ _______ _____ _____    ______ ____
ROOT
ATOM      1  C4  UNL     1     -13.170  95.357 112.675  0.00  0.00    +0.000 A 
ATOM      2  C5  UNL     1     -12.186  96.239 113.150  0.00  0.00    +0.000 A 
ATOM      3  C6  UNL     1     -10.824  95.926 113.028  0.00  0.00    +0.000 A 
ATOM      4  C7  UNL     1     -10.432  94.718 112.425  0.00  0.00    +0.000 A 
ATOM      5  C8  UNL     1     -11.414  93.835 111.950  0.00  0.00    +0.000 A 
ATOM      6  C9  UNL     1     -12.769  94.151 112.072  0.00  0.00    +0.000 A 
ATOM      7  C10 UNL     1      -8.976  94.376 112.292  0.00  0.00    +0.000 C 
ENDROOT
BRANCH   1   9
ATOM      8  C1  UNL     1     -15.233  96.146 111.469  0.00  0.00    +0.000 C 
ATOM      9  C2  UNL     1     -14.639  95.711 112.814  0.00  0.00    +0.000 C 
ATOM     10  C3  UNL     1     -15.434  94.548 113.420  0.00  0.00    +0.000 C 
ENDBRANCH   1   9
BRANCH   3  11
ATOM     11  O1  UNL     1      -9.858  96.812 113.506  0.00  0.00    +0.000 OA
ATOM     12  H14 UNL     1      -8.889  96.750 113.215  0.00  0.00    +0.000 HD
ENDBRANCH   3  11
TORSDOF 2
ENDMDL
