MODEL 1
REMARK VINA RESULT:      -4.9      0.000      0.000
REMARK  Name = .\Carvacrol.pdb
REMARK  5 active torsions:
REMARK  status: ('A' for Active; 'I' for Inactive)
REMARK    1  A    between atoms: C1_1  and  C2_2
REMARK    2  A    between atoms: C2_2  and  C3_3
REMARK    3  A    between atoms: C2_2  and  C4_4
REMARK    4  A    between atoms: C6_6  and  O1_11
REMARK    5  A    between atoms: C7_7  and  C10_10
REMARK                            x       y       z     vdW  Elec       q    Type
REMARK                         _______ _______ _______ _____ _____    ______ ____
ROOT
ATOM      1  C4  UNL     1      -7.803  36.749  20.610  0.00  0.00    +0.000 A 
ATOM      2  C5  UNL     1      -7.349  37.325  19.412  0.00  0.00    +0.000 A 
ATOM      3  C6  UNL     1      -8.236  37.999  18.559  0.00  0.00    +0.000 A 
ATOM      4  C7  UNL     1      -9.595  38.103  18.901  0.00  0.00    +0.000 A 
ATOM      5  C8  UNL     1     -10.052  37.528  20.097  0.00  0.00    +0.000 A 
ATOM      6  C9  UNL     1      -9.165  36.858  20.944  0.00  0.00    +0.000 A 
ATOM      7  C10 UNL     1     -10.551  38.822  17.993  0.00  0.00    +0.000 C 
ENDROOT
BRANCH   1   9
ATOM      8  C1  UNL     1      -5.588  36.880  21.796  0.00  0.00    +0.000 C 
ATOM      9  C2  UNL     1      -6.830  36.024  21.521  0.00  0.00    +0.000 C 
ATOM     10  C3  UNL     1      -7.508  35.598  22.828  0.00  0.00    +0.000 C 
ENDBRANCH   1   9
BRANCH   3  11
ATOM     11  O1  UNL     1      -7.770  38.565  17.372  0.00  0.00    +0.000 OA
ATOM     12  H14 UNL     1      -8.323  39.234  16.849  0.00  0.00    +0.000 HD
ENDBRANCH   3  11
TORSDOF 2
ENDMDL
MODEL 2
REMARK VINA RESULT:      -4.7      1.349      4.423
REMARK  Name = .\Carvacrol.pdb
REMARK  5 active torsions:
REMARK  status: ('A' for Active; 'I' for Inactive)
REMARK    1  A    between atoms: C1_1  and  C2_2
REMARK    2  A    between atoms: C2_2  and  C3_3
REMARK    3  A    between atoms: C2_2  and  C4_4
REMARK    4  A    between atoms: C6_6  and  O1_11
REMARK    5  A    between atoms: C7_7  and  C10_10
REMARK                            x       y       z     vdW  Elec       q    Type
REMARK                         _______ _______ _______ _____ _____    ______ ____
ROOT
ATOM      1  C4  UNL     1      -8.902  38.055  18.303  0.00  0.00    +0.000 A 
ATOM      2  C5  UNL     1      -7.511  37.861  18.255  0.00  0.00    +0.000 A 
ATOM      3  C6  UNL     1      -6.838  37.232  19.313  0.00  0.00    +0.000 A 
ATOM      4  C7  UNL     1      -7.556  36.789  20.437  0.00  0.00    +0.000 A 
ATOM      5  C8  UNL     1      -8.946  36.981  20.488  0.00  0.00    +0.000 A 
ATOM      6  C9  UNL     1      -9.612  37.608  19.432  0.00  0.00    +0.000 A 
ATOM      7  C10 UNL     1      -6.843  36.115  21.574  0.00  0.00    +0.000 C 
ENDROOT
BRANCH   1   9
ATOM      8  C1  UNL     1     -10.819  37.914  16.681  0.00  0.00    +0.000 C 
ATOM      9  C2  UNL     1      -9.613  38.737  17.150  0.00  0.00    +0.000 C 
ATOM     10  C3  UNL     1     -10.030  40.164  17.524  0.00  0.00    +0.000 C 
ENDBRANCH   1   9
BRANCH   3  11
ATOM     11  O1  UNL     1      -5.457  37.047  19.251  0.00  0.00    +0.000 OA
ATOM     12  H14 UNL     1      -4.937  37.209  18.396  0.00  0.00    +0.000 HD
ENDBRANCH   3  11
TORSDOF 2
ENDMDL
MODEL 3
REMARK VINA RESULT:      -4.6      1.397      2.008
REMARK  Name = .\Carvacrol.pdb
REMARK  5 active torsions:
REMARK  status: ('A' for Active; 'I' for Inactive)
REMARK    1  A    between atoms: C1_1  and  C2_2
REMARK    2  A    between atoms: C2_2  and  C3_3
REMARK    3  A    between atoms: C2_2  and  C4_4
REMARK    4  A    between atoms: C6_6  and  O1_11
REMARK    5  A    between atoms: C7_7  and  C10_10
REMARK                            x       y       z     vdW  Elec       q    Type
REMARK                         _______ _______ _______ _____ _____    ______ ____
ROOT
ATOM      1  C4  UNL     1      -7.771  36.943  20.491  0.00  0.00    +0.000 A 
ATOM      2  C5  UNL     1      -9.154  37.193  20.532  0.00  0.00    +0.000 A 
ATOM      3  C6  UNL     1      -9.816  37.739  19.423  0.00  0.00    +0.000 A 
ATOM      4  C7  UNL     1      -9.096  38.042  18.255  0.00  0.00    +0.000 A 
ATOM      5  C8  UNL     1      -7.715  37.793  18.211  0.00  0.00    +0.000 A 
ATOM      6  C9  UNL     1      -7.059  37.249  19.318  0.00  0.00    +0.000 A 
ATOM      7  C10 UNL     1      -9.798  38.628  17.063  0.00  0.00    +0.000 C 
ENDROOT
BRANCH   1   9
ATOM      8  C1  UNL     1      -5.609  36.808  21.770  0.00  0.00    +0.000 C 
ATOM      9  C2  UNL     1      -7.071  36.351  21.700  0.00  0.00    +0.000 C 
ATOM     10  C3  UNL     1      -7.819  36.692  22.995  0.00  0.00    +0.000 C 
ENDBRANCH   1   9
BRANCH   3  11
ATOM     11  O1  UNL     1     -11.188  37.983  19.480  0.00  0.00    +0.000 OA
ATOM     12  H14 UNL     1     -11.760  38.001  18.642  0.00  0.00    +0.000 HD
ENDBRANCH   3  11
TORSDOF 2
ENDMDL
MODEL 4
REMARK VINA RESULT:      -4.5      0.785      1.322
REMARK  Name = .\Carvacrol.pdb
REMARK  5 active torsions:
REMARK  status: ('A' for Active; 'I' for Inactive)
REMARK    1  A    between atoms: C1_1  and  C2_2
REMARK    2  A    between atoms: C2_2  and  C3_3
REMARK    3  A    between atoms: C2_2  and  C4_4
REMARK    4  A    between atoms: C6_6  and  O1_11
REMARK    5  A    between atoms: C7_7  and  C10_10
REMARK                            x       y       z     vdW  Elec       q    Type
REMARK                         _______ _______ _______ _____ _____    ______ ____
ROOT
ATOM      1  C4  UNL     1      -8.138  36.830  20.730  0.00  0.00    +0.000 A 
ATOM      2  C5  UNL     1      -7.394  37.349  19.657  0.00  0.00    +0.000 A 
ATOM      3  C6  UNL     1      -8.015  37.657  18.437  0.00  0.00    +0.000 A 
ATOM      4  C7  UNL     1      -9.395  37.446  18.279  0.00  0.00    +0.000 A 
ATOM      5  C8  UNL     1     -10.141  36.927  19.349  0.00  0.00    +0.000 A 
ATOM      6  C9  UNL     1      -9.519  36.622  20.563  0.00  0.00    +0.000 A 
ATOM      7  C10 UNL     1     -10.067  37.772  16.976  0.00  0.00    +0.000 C 
ENDROOT
BRANCH   1   9
ATOM      8  C1  UNL     1      -7.789  35.081  22.504  0.00  0.00    +0.000 C 
ATOM      9  C2  UNL     1      -7.451  36.503  22.043  0.00  0.00    +0.000 C 
ATOM     10  C3  UNL     1      -5.934  36.704  21.938  0.00  0.00    +0.000 C 
ENDBRANCH   1   9
BRANCH   3  11
ATOM     11  O1  UNL     1      -7.262  38.171  17.381  0.00  0.00    +0.000 OA
ATOM     12  H14 UNL     1      -7.444  39.092  16.998  0.00  0.00    +0.000 HD
ENDBRANCH   3  11
TORSDOF 2
ENDMDL
MODEL 5
REMARK VINA RESULT:      -4.3      1.344      4.085
REMARK  Name = .\Carvacrol.pdb
REMARK  5 active torsions:
REMARK  status: ('A' for Active; 'I' for Inactive)
REMARK    1  A    between atoms: C1_1  and  C2_2
REMARK    2  A    between atoms: C2_2  and  C3_3
REMARK    3  A    between atoms: C2_2  and  C4_4
REMARK    4  A    between atoms: C6_6  and  O1_11
REMARK    5  A    between atoms: C7_7  and  C10_10
REMARK                            x       y       z     vdW  Elec       q    Type
REMARK                         _______ _______ _______ _____ _____    ______ ____
ROOT
ATOM      1  C4  UNL     1      -9.355  36.780  19.939  0.00  0.00    +0.000 A 
ATOM      2  C5  UNL     1      -8.198  36.994  19.170  0.00  0.00    +0.000 A 
ATOM      3  C6  UNL     1      -6.932  37.015  19.772  0.00  0.00    +0.000 A 
ATOM      4  C7  UNL     1      -6.811  36.822  21.159  0.00  0.00    +0.000 A 
ATOM      5  C8  UNL     1      -7.965  36.609  21.929  0.00  0.00    +0.000 A 
ATOM      6  C9  UNL     1      -9.224  36.588  21.326  0.00  0.00    +0.000 A 
ATOM      7  C10 UNL     1      -5.458  36.843  21.812  0.00  0.00    +0.000 C 
ENDROOT
BRANCH   1   9
ATOM      8  C1  UNL     1     -11.838  36.979  20.294  0.00  0.00    +0.000 C 
ATOM      9  C2  UNL     1     -10.717  36.761  19.271  0.00  0.00    +0.000 C 
ATOM     10  C3  UNL     1     -10.794  37.793  18.139  0.00  0.00    +0.000 C 
ENDBRANCH   1   9
BRANCH   3  11
ATOM     11  O1  UNL     1      -5.792  37.228  18.996  0.00  0.00    +0.000 OA
ATOM     12  H14 UNL     1      -4.948  36.684  19.130  0.00  0.00    +0.000 HD
ENDBRANCH   3  11
TORSDOF 2
ENDMDL
MODEL 6
REMARK VINA RESULT:      -4.2      1.797      4.742
REMARK  Name = .\Carvacrol.pdb
REMARK  5 active torsions:
REMARK  status: ('A' for Active; 'I' for Inactive)
REMARK    1  A    between atoms: C1_1  and  C2_2
REMARK    2  A    between atoms: C2_2  and  C3_3
REMARK    3  A    between atoms: C2_2  and  C4_4
REMARK    4  A    between atoms: C6_6  and  O1_11
REMARK    5  A    between atoms: C7_7  and  C10_10
REMARK                            x       y       z     vdW  Elec       q    Type
REMARK                         _______ _______ _______ _____ _____    ______ ____
ROOT
ATOM      1  C4  UNL     1      -9.348  38.105  18.763  0.00  0.00    +0.000 A 
ATOM      2  C5  UNL     1      -9.829  37.539  19.956  0.00  0.00    +0.000 A 
ATOM      3  C6  UNL     1      -8.959  36.879  20.836  0.00  0.00    +0.000 A 
ATOM      4  C7  UNL     1      -7.591  36.778  20.528  0.00  0.00    +0.000 A 
ATOM      5  C8  UNL     1      -7.109  37.343  19.337  0.00  0.00    +0.000 A 
ATOM      6  C9  UNL     1      -7.979  38.000  18.463  0.00  0.00    +0.000 A 
ATOM      7  C10 UNL     1      -6.654  36.073  21.466  0.00  0.00    +0.000 C 
ENDROOT
BRANCH   1   9
ATOM      8  C1  UNL     1      -9.802  40.226  17.487  0.00  0.00    +0.000 C 
ATOM      9  C2  UNL     1     -10.303  38.816  17.822  0.00  0.00    +0.000 C 
ATOM     10  C3  UNL     1     -10.538  37.996  16.548  0.00  0.00    +0.000 C 
ENDBRANCH   1   9
BRANCH   3  11
ATOM     11  O1  UNL     1      -9.451  36.321  22.017  0.00  0.00    +0.000 OA
ATOM     12  H14 UNL     1     -10.035  36.852  22.652  0.00  0.00    +0.000 HD
ENDBRANCH   3  11
TORSDOF 2
ENDMDL
MODEL 7
REMARK VINA RESULT:      -4.0      2.896      3.825
REMARK  Name = .\Carvacrol.pdb
REMARK  5 active torsions:
REMARK  status: ('A' for Active; 'I' for Inactive)
REMARK    1  A    between atoms: C1_1  and  C2_2
REMARK    2  A    between atoms: C2_2  and  C3_3
REMARK    3  A    between atoms: C2_2  and  C4_4
REMARK    4  A    between atoms: C6_6  and  O1_11
REMARK    5  A    between atoms: C7_7  and  C10_10
REMARK                            x       y       z     vdW  Elec       q    Type
REMARK                         _______ _______ _______ _____ _____    ______ ____
ROOT
ATOM      1  C4  UNL     1      -7.761  36.492  21.543  0.00  0.00    +0.000 A 
ATOM      2  C5  UNL     1      -8.203  35.816  22.693  0.00  0.00    +0.000 A 
ATOM      3  C6  UNL     1      -9.563  35.797  23.034  0.00  0.00    +0.000 A 
ATOM      4  C7  UNL     1     -10.500  36.460  22.223  0.00  0.00    +0.000 A 
ATOM      5  C8  UNL     1     -10.061  37.135  21.074  0.00  0.00    +0.000 A 
ATOM      6  C9  UNL     1      -8.705  37.151  20.736  0.00  0.00    +0.000 A 
ATOM      7  C10 UNL     1     -11.958  36.444  22.582  0.00  0.00    +0.000 C 
ENDROOT
BRANCH   1   9
ATOM      8  C1  UNL     1      -6.049  37.170  19.829  0.00  0.00    +0.000 C 
ATOM      9  C2  UNL     1      -6.285  36.502  21.188  0.00  0.00    +0.000 C 
ATOM     10  C3  UNL     1      -5.457  37.176  22.288  0.00  0.00    +0.000 C 
ENDBRANCH   1   9
BRANCH   3  11
ATOM     11  O1  UNL     1      -9.986  35.123  24.180  0.00  0.00    +0.000 OA
ATOM     12  H14 UNL     1      -9.842  34.126  24.294  0.00  0.00    +0.000 HD
ENDBRANCH   3  11
TORSDOF 2
ENDMDL
MODEL 8
REMARK VINA RESULT:      -4.0      1.001      1.326
REMARK  Name = .\Carvacrol.pdb
REMARK  5 active torsions:
REMARK  status: ('A' for Active; 'I' for Inactive)
REMARK    1  A    between atoms: C1_1  and  C2_2
REMARK    2  A    between atoms: C2_2  and  C3_3
REMARK    3  A    between atoms: C2_2  and  C4_4
REMARK    4  A    between atoms: C6_6  and  O1_11
REMARK    5  A    between atoms: C7_7  and  C10_10
REMARK                            x       y       z     vdW  Elec       q    Type
REMARK                         _______ _______ _______ _____ _____    ______ ____
ROOT
ATOM      1  C4  UNL     1      -8.232  36.426  21.010  0.00  0.00    +0.000 A 
ATOM      2  C5  UNL     1      -7.389  36.945  20.012  0.00  0.00    +0.000 A 
ATOM      3  C6  UNL     1      -7.909  37.731  18.973  0.00  0.00    +0.000 A 
ATOM      4  C7  UNL     1      -9.286  38.007  18.923  0.00  0.00    +0.000 A 
ATOM      5  C8  UNL     1     -10.130  37.490  19.918  0.00  0.00    +0.000 A 
ATOM      6  C9  UNL     1      -9.608  36.707  20.952  0.00  0.00    +0.000 A 
ATOM      7  C10 UNL     1      -9.850  38.848  17.813  0.00  0.00    +0.000 C 
ENDROOT
BRANCH   1   9
ATOM      8  C1  UNL     1      -8.359  35.860  23.458  0.00  0.00    +0.000 C 
ATOM      9  C2  UNL     1      -7.653  35.577  22.127  0.00  0.00    +0.000 C 
ATOM     10  C3  UNL     1      -7.711  34.086  21.775  0.00  0.00    +0.000 C 
ENDBRANCH   1   9
BRANCH   3  11
ATOM     11  O1  UNL     1      -7.060  38.238  17.989  0.00  0.00    +0.000 OA
ATOM     12  H14 UNL     1      -6.675  37.645  17.262  0.00  0.00    +0.000 HD
ENDBRANCH   3  11
TORSDOF 2
ENDMDL
MODEL 9
REMARK VINA RESULT:      -4.0      1.738      4.221
REMARK  Name = .\Carvacrol.pdb
REMARK  5 active torsions:
REMARK  status: ('A' for Active; 'I' for Inactive)
REMARK    1  A    between atoms: C1_1  and  C2_2
REMARK    2  A    between atoms: C2_2  and  C3_3
REMARK    3  A    between atoms: C2_2  and  C4_4
REMARK    4  A    between atoms: C6_6  and  O1_11
REMARK    5  A    between atoms: C7_7  and  C10_10
REMARK                            x       y       z     vdW  Elec       q    Type
REMARK                         _______ _______ _______ _____ _____    ______ ____
ROOT
ATOM      1  C4  UNL     1      -9.225  37.492  19.882  0.00  0.00    +0.000 A 
ATOM      2  C5  UNL     1      -7.887  37.062  19.865  0.00  0.00    +0.000 A 
ATOM      3  C6  UNL     1      -7.358  36.325  20.935  0.00  0.00    +0.000 A 
ATOM      4  C7  UNL     1      -8.168  36.011  22.039  0.00  0.00    +0.000 A 
ATOM      5  C8  UNL     1      -9.504  36.440  22.059  0.00  0.00    +0.000 A 
ATOM      6  C9  UNL     1     -10.028  37.173  20.991  0.00  0.00    +0.000 A 
ATOM      7  C10 UNL     1      -7.608  35.222  23.189  0.00  0.00    +0.000 C 
ENDROOT
BRANCH   1   9
ATOM      8  C1  UNL     1      -8.673  38.664  17.725  0.00  0.00    +0.000 C 
ATOM      9  C2  UNL     1      -9.781  38.288  18.716  0.00  0.00    +0.000 C 
ATOM     10  C3  UNL     1     -10.914  37.527  18.017  0.00  0.00    +0.000 C 
ENDBRANCH   1   9
BRANCH   3  11
ATOM     11  O1  UNL     1      -6.028  35.906  20.903  0.00  0.00    +0.000 OA
ATOM     12  H14 UNL     1      -5.279  36.531  20.625  0.00  0.00    +0.000 HD
ENDBRANCH   3  11
TORSDOF 2
ENDMDL
