MODEL 1
REMARK VINA RESULT:      -4.4      0.000      0.000
REMARK  Name = .\Carvone.pdb
REMARK  3 active torsions:
REMARK  status: ('A' for Active; 'I' for Inactive)
REMARK    1  A    between atoms: C1_1  and  C2_2
REMARK    2  A    between atoms: C7_8  and  C8_9
REMARK    3  A    between atoms: C7_8  and  C9_10
REMARK                            x       y       z     vdW  Elec       q    Type
REMARK                         _______ _______ _______ _____ _____    ______ ____
ROOT
ATOM      1  C1  UNL     1       2.805 100.638  94.649  0.00  0.00    +0.000 C 
ATOM      2  C2  UNL     1       1.647  99.717  94.350  0.00  0.00    +0.000 C 
ATOM      3  C3  UNL     1       0.978  99.209  95.397  0.00  0.00    +0.000 C 
ATOM      4  C4  UNL     1      -0.159  98.307  95.207  0.00  0.00    +0.000 C 
ATOM      5  O1  UNL     1      -0.772  97.843  96.205  0.00  0.00    +0.000 OA
ATOM      6  C5  UNL     1      -0.580  97.948  93.856  0.00  0.00    +0.000 C 
ATOM      7  C6  UNL     1       0.064  98.436  92.796  0.00  0.00    +0.000 C 
ATOM      8  C7  UNL     1       1.256  99.380  92.897  0.00  0.00    +0.000 C 
ATOM      9  C8  UNL     1       2.443  98.697  92.190  0.00  0.00    +0.000 C 
ATOM     10  C9  UNL     1       0.880 100.675  92.151  0.00  0.00    +0.000 C 
ENDROOT
TORSDOF 0
ENDMDL
MODEL 2
REMARK VINA RESULT:      -4.1      0.861      2.506
REMARK  Name = .\Carvone.pdb
REMARK  3 active torsions:
REMARK  status: ('A' for Active; 'I' for Inactive)
REMARK    1  A    between atoms: C1_1  and  C2_2
REMARK    2  A    between atoms: C7_8  and  C8_9
REMARK    3  A    between atoms: C7_8  and  C9_10
REMARK                            x       y       z     vdW  Elec       q    Type
REMARK                         _______ _______ _______ _____ _____    ______ ____
ROOT
ATOM      1  C1  UNL     1       0.389  98.650  91.656  0.00  0.00    +0.000 C 
ATOM      2  C2  UNL     1       0.638  98.883  93.126  0.00  0.00    +0.000 C 
ATOM      3  C3  UNL     1      -0.203  98.298  93.993  0.00  0.00    +0.000 C 
ATOM      4  C4  UNL     1      -0.043  98.466  95.438  0.00  0.00    +0.000 C 
ATOM      5  O1  UNL     1      -0.844  97.908  96.233  0.00  0.00    +0.000 OA
ATOM      6  C5  UNL     1       1.052  99.283  95.955  0.00  0.00    +0.000 C 
ATOM      7  C6  UNL     1       1.905  99.875  95.119  0.00  0.00    +0.000 C 
ATOM      8  C7  UNL     1       1.815  99.757  93.602  0.00  0.00    +0.000 C 
ATOM      9  C8  UNL     1       1.656 101.184  93.041  0.00  0.00    +0.000 C 
ATOM     10  C9  UNL     1       3.142  99.148  93.110  0.00  0.00    +0.000 C 
ENDROOT
TORSDOF 0
ENDMDL
MODEL 3
REMARK VINA RESULT:      -3.5      3.977      5.690
REMARK  Name = .\Carvone.pdb
REMARK  3 active torsions:
REMARK  status: ('A' for Active; 'I' for Inactive)
REMARK    1  A    between atoms: C1_1  and  C2_2
REMARK    2  A    between atoms: C7_8  and  C8_9
REMARK    3  A    between atoms: C7_8  and  C9_10
REMARK                            x       y       z     vdW  Elec       q    Type
REMARK                         _______ _______ _______ _____ _____    ______ ____
ROOT
ATOM      1  C1  UNL     1       3.198 101.693  96.782  0.00  0.00    +0.000 C 
ATOM      2  C2  UNL     1       2.228 101.118  97.786  0.00  0.00    +0.000 C 
ATOM      3  C3  UNL     1       1.278 100.292  97.321  0.00  0.00    +0.000 C 
ATOM      4  C4  UNL     1       0.292  99.686  98.217  0.00  0.00    +0.000 C 
ATOM      5  O1  UNL     1      -0.590  98.914  97.758  0.00  0.00    +0.000 OA
ATOM      6  C5  UNL     1       0.336  99.981  99.646  0.00  0.00    +0.000 C 
ATOM      7  C6  UNL     1       1.268 100.797 100.139  0.00  0.00    +0.000 C 
ATOM      8  C7  UNL     1       2.333 101.472  99.282  0.00  0.00    +0.000 C 
ATOM      9  C8  UNL     1       2.170 102.994  99.464  0.00  0.00    +0.000 C 
ATOM     10  C9  UNL     1       3.706 101.027  99.822  0.00  0.00    +0.000 C 
ENDROOT
TORSDOF 0
ENDMDL
MODEL 4
REMARK VINA RESULT:      -3.5      4.472      6.007
REMARK  Name = .\Carvone.pdb
REMARK  3 active torsions:
REMARK  status: ('A' for Active; 'I' for Inactive)
REMARK    1  A    between atoms: C1_1  and  C2_2
REMARK    2  A    between atoms: C7_8  and  C8_9
REMARK    3  A    between atoms: C7_8  and  C9_10
REMARK                            x       y       z     vdW  Elec       q    Type
REMARK                         _______ _______ _______ _____ _____    ______ ____
ROOT
ATOM      1  C1  UNL     1       0.872 101.292 101.650  0.00  0.00    +0.000 C 
ATOM      2  C2  UNL     1       1.073 100.965 100.191  0.00  0.00    +0.000 C 
ATOM      3  C3  UNL     1       0.194 100.125  99.621  0.00  0.00    +0.000 C 
ATOM      4  C4  UNL     1       0.307  99.748  98.211  0.00  0.00    +0.000 C 
ATOM      5  O1  UNL     1      -0.530  98.958  97.698  0.00  0.00    +0.000 OA
ATOM      6  C5  UNL     1       1.393 100.292  97.402  0.00  0.00    +0.000 C 
ATOM      7  C6  UNL     1       2.281 101.129  97.938  0.00  0.00    +0.000 C 
ATOM      8  C7  UNL     1       2.243 101.576  99.395  0.00  0.00    +0.000 C 
ATOM      9  C8  UNL     1       3.579 101.155 100.039  0.00  0.00    +0.000 C 
ATOM     10  C9  UNL     1       2.123 103.112  99.400  0.00  0.00    +0.000 C 
ENDROOT
TORSDOF 0
ENDMDL
MODEL 5
REMARK VINA RESULT:      -3.2      2.420      3.450
REMARK  Name = .\Carvone.pdb
REMARK  3 active torsions:
REMARK  status: ('A' for Active; 'I' for Inactive)
REMARK    1  A    between atoms: C1_1  and  C2_2
REMARK    2  A    between atoms: C7_8  and  C8_9
REMARK    3  A    between atoms: C7_8  and  C9_10
REMARK                            x       y       z     vdW  Elec       q    Type
REMARK                         _______ _______ _______ _____ _____    ______ ____
ROOT
ATOM      1  C1  UNL     1       1.374  99.577  95.408  0.00  0.00    +0.000 C 
ATOM      2  C2  UNL     1       1.722  99.231  93.980  0.00  0.00    +0.000 C 
ATOM      3  C3  UNL     1       3.016  99.013  93.698  0.00  0.00    +0.000 C 
ATOM      4  C4  UNL     1       3.451  98.673  92.342  0.00  0.00    +0.000 C 
ATOM      5  O1  UNL     1       4.671  98.472  92.101  0.00  0.00    +0.000 OA
ATOM      6  C5  UNL     1       2.465  98.566  91.271  0.00  0.00    +0.000 C 
ATOM      7  C6  UNL     1       1.172  98.776  91.520  0.00  0.00    +0.000 C 
ATOM      8  C7  UNL     1       0.629  99.135  92.899  0.00  0.00    +0.000 C 
ATOM      9  C8  UNL     1      -0.088 100.494  92.769  0.00  0.00    +0.000 C 
ATOM     10  C9  UNL     1      -0.388  98.044  93.289  0.00  0.00    +0.000 C 
ENDROOT
TORSDOF 0
ENDMDL
MODEL 6
REMARK VINA RESULT:      -3.1      1.333      2.890
REMARK  Name = .\Carvone.pdb
REMARK  3 active torsions:
REMARK  status: ('A' for Active; 'I' for Inactive)
REMARK    1  A    between atoms: C1_1  and  C2_2
REMARK    2  A    between atoms: C7_8  and  C8_9
REMARK    3  A    between atoms: C7_8  and  C9_10
REMARK                            x       y       z     vdW  Elec       q    Type
REMARK                         _______ _______ _______ _____ _____    ______ ____
ROOT
ATOM      1  C1  UNL     1      -0.558  97.920  93.307  0.00  0.00    +0.000 C 
ATOM      2  C2  UNL     1       0.530  98.868  93.750  0.00  0.00    +0.000 C 
ATOM      3  C3  UNL     1       0.654  99.090  95.069  0.00  0.00    +0.000 C 
ATOM      4  C4  UNL     1       1.679  99.993  95.594  0.00  0.00    +0.000 C 
ATOM      5  O1  UNL     1       1.777 100.185  96.835  0.00  0.00    +0.000 OA
ATOM      6  C5  UNL     1       2.587 100.670  94.673  0.00  0.00    +0.000 C 
ATOM      7  C6  UNL     1       2.490 100.470  93.359  0.00  0.00    +0.000 C 
ATOM      8  C7  UNL     1       1.455  99.549  92.723  0.00  0.00    +0.000 C 
ATOM      9  C8  UNL     1       0.611 100.405  91.758  0.00  0.00    +0.000 C 
ATOM     10  C9  UNL     1       2.224  98.474  91.930  0.00  0.00    +0.000 C 
ENDROOT
TORSDOF 0
ENDMDL
MODEL 7
REMARK VINA RESULT:      -3.1      1.468      1.888
REMARK  Name = .\Carvone.pdb
REMARK  3 active torsions:
REMARK  status: ('A' for Active; 'I' for Inactive)
REMARK    1  A    between atoms: C1_1  and  C2_2
REMARK    2  A    between atoms: C7_8  and  C8_9
REMARK    3  A    between atoms: C7_8  and  C9_10
REMARK                            x       y       z     vdW  Elec       q    Type
REMARK                         _______ _______ _______ _____ _____    ______ ____
ROOT
ATOM      1  C1  UNL     1       1.806 100.120  96.029  0.00  0.00    +0.000 C 
ATOM      2  C2  UNL     1       1.439  99.581  94.668  0.00  0.00    +0.000 C 
ATOM      3  C3  UNL     1       0.349  98.801  94.588  0.00  0.00    +0.000 C 
ATOM      4  C4  UNL     1      -0.086  98.232  93.312  0.00  0.00    +0.000 C 
ATOM      5  O1  UNL     1      -1.112  97.504  93.261  0.00  0.00    +0.000 OA
ATOM      6  C5  UNL     1       0.675  98.512  92.098  0.00  0.00    +0.000 C 
ATOM      7  C6  UNL     1       1.761  99.283  92.145  0.00  0.00    +0.000 C 
ATOM      8  C7  UNL     1       2.288  99.917  93.427  0.00  0.00    +0.000 C 
ATOM      9  C8  UNL     1       3.728  99.406  93.633  0.00  0.00    +0.000 C 
ATOM     10  C9  UNL     1       2.303 101.443  93.211  0.00  0.00    +0.000 C 
ENDROOT
TORSDOF 0
ENDMDL
MODEL 8
REMARK VINA RESULT:      -3.0      1.261      2.675
REMARK  Name = .\Carvone.pdb
REMARK  3 active torsions:
REMARK  status: ('A' for Active; 'I' for Inactive)
REMARK    1  A    between atoms: C1_1  and  C2_2
REMARK    2  A    between atoms: C7_8  and  C8_9
REMARK    3  A    between atoms: C7_8  and  C9_10
REMARK                            x       y       z     vdW  Elec       q    Type
REMARK                         _______ _______ _______ _____ _____    ______ ____
ROOT
ATOM      1  C1  UNL     1       0.219 100.546  91.260  0.00  0.00    +0.000 C 
ATOM      2  C2  UNL     1       0.737 100.153  92.622  0.00  0.00    +0.000 C 
ATOM      3  C3  UNL     1      -0.028  99.329  93.356  0.00  0.00    +0.000 C 
ATOM      4  C4  UNL     1       0.390  98.892  94.690  0.00  0.00    +0.000 C 
ATOM      5  O1  UNL     1      -0.344  98.118  95.360  0.00  0.00    +0.000 OA
ATOM      6  C5  UNL     1       1.660  99.357  95.239  0.00  0.00    +0.000 C 
ATOM      7  C6  UNL     1       2.442 100.175  94.534  0.00  0.00    +0.000 C 
ATOM      8  C7  UNL     1       2.089 100.681  93.140  0.00  0.00    +0.000 C 
ATOM      9  C8  UNL     1       2.048 102.220  93.208  0.00  0.00    +0.000 C 
ATOM     10  C9  UNL     1       3.216 100.231  92.190  0.00  0.00    +0.000 C 
ENDROOT
TORSDOF 0
ENDMDL
MODEL 9
REMARK VINA RESULT:      -2.9      6.203      7.857
REMARK  Name = .\Carvone.pdb
REMARK  3 active torsions:
REMARK  status: ('A' for Active; 'I' for Inactive)
REMARK    1  A    between atoms: C1_1  and  C2_2
REMARK    2  A    between atoms: C7_8  and  C8_9
REMARK    3  A    between atoms: C7_8  and  C9_10
REMARK                            x       y       z     vdW  Elec       q    Type
REMARK                         _______ _______ _______ _____ _____    ______ ____
ROOT
ATOM      1  C1  UNL     1       0.068 101.946 103.228  0.00  0.00    +0.000 C 
ATOM      2  C2  UNL     1       0.211 101.381 101.836  0.00  0.00    +0.000 C 
ATOM      3  C3  UNL     1       1.442 101.367 101.300  0.00  0.00    +0.000 C 
ATOM      4  C4  UNL     1       1.680 100.838  99.956  0.00  0.00    +0.000 C 
ATOM      5  O1  UNL     1       2.843 100.836  99.474  0.00  0.00    +0.000 OA
ATOM      6  C5  UNL     1       0.562 100.314  99.176  0.00  0.00    +0.000 C 
ATOM      7  C6  UNL     1      -0.672 100.313  99.681  0.00  0.00    +0.000 C 
ATOM      8  C7  UNL     1      -1.013 100.843 101.069  0.00  0.00    +0.000 C 
ATOM      9  C8  UNL     1      -2.044 101.974 100.887  0.00  0.00    +0.000 C 
ATOM     10  C9  UNL     1      -1.647  99.681 101.859  0.00  0.00    +0.000 C 
ENDROOT
TORSDOF 0
ENDMDL
