MODEL 1
REMARK VINA RESULT:      -4.2      0.000      0.000
REMARK  Name = .\Carvone.pdb
REMARK  3 active torsions:
REMARK  status: ('A' for Active; 'I' for Inactive)
REMARK    1  A    between atoms: C1_1  and  C2_2
REMARK    2  A    between atoms: C7_8  and  C8_9
REMARK    3  A    between atoms: C7_8  and  C9_10
REMARK                            x       y       z     vdW  Elec       q    Type
REMARK                         _______ _______ _______ _____ _____    ______ ____
ROOT
ATOM      1  C1  UNL     1      -2.151  31.523  30.308  0.00  0.00    +0.000 C 
ATOM      2  C2  UNL     1      -1.736  32.941  30.001  0.00  0.00    +0.000 C 
ATOM      3  C3  UNL     1      -2.103  33.893  30.874  0.00  0.00    +0.000 C 
ATOM      4  C4  UNL     1      -1.747  35.297  30.662  0.00  0.00    +0.000 C 
ATOM      5  O1  UNL     1      -2.102  36.172  31.494  0.00  0.00    +0.000 OA
ATOM      6  C5  UNL     1      -0.978  35.678  29.481  0.00  0.00    +0.000 C 
ATOM      7  C6  UNL     1      -0.598  34.756  28.596  0.00  0.00    +0.000 C 
ATOM      8  C7  UNL     1      -0.923  33.273  28.734  0.00  0.00    +0.000 C 
ATOM      9  C8  UNL     1      -1.727  32.862  27.484  0.00  0.00    +0.000 C 
ATOM     10  C9  UNL     1       0.416  32.511  28.766  0.00  0.00    +0.000 C 
ENDROOT
TORSDOF 0
ENDMDL
MODEL 2
REMARK VINA RESULT:      -3.9      1.189      2.628
REMARK  Name = .\Carvone.pdb
REMARK  3 active torsions:
REMARK  status: ('A' for Active; 'I' for Inactive)
REMARK    1  A    between atoms: C1_1  and  C2_2
REMARK    2  A    between atoms: C7_8  and  C8_9
REMARK    3  A    between atoms: C7_8  and  C9_10
REMARK                            x       y       z     vdW  Elec       q    Type
REMARK                         _______ _______ _______ _____ _____    ______ ____
ROOT
ATOM      1  C1  UNL     1      -1.738  32.736  27.368  0.00  0.00    +0.000 C 
ATOM      2  C2  UNL     1      -1.846  33.541  28.640  0.00  0.00    +0.000 C 
ATOM      3  C3  UNL     1      -1.595  34.857  28.560  0.00  0.00    +0.000 C 
ATOM      4  C4  UNL     1      -1.675  35.719  29.740  0.00  0.00    +0.000 C 
ATOM      5  O1  UNL     1      -1.435  36.952  29.640  0.00  0.00    +0.000 OA
ATOM      6  C5  UNL     1      -2.034  35.144  31.033  0.00  0.00    +0.000 C 
ATOM      7  C6  UNL     1      -2.290  33.841  31.145  0.00  0.00    +0.000 C 
ATOM      8  C7  UNL     1      -2.231  32.868  29.973  0.00  0.00    +0.000 C 
ATOM      9  C8  UNL     1      -1.188  31.789  30.325  0.00  0.00    +0.000 C 
ATOM     10  C9  UNL     1      -3.625  32.224  29.842  0.00  0.00    +0.000 C 
ENDROOT
TORSDOF 0
ENDMDL
MODEL 3
REMARK VINA RESULT:      -3.8      1.233      1.444
REMARK  Name = .\Carvone.pdb
REMARK  3 active torsions:
REMARK  status: ('A' for Active; 'I' for Inactive)
REMARK    1  A    between atoms: C1_1  and  C2_2
REMARK    2  A    between atoms: C7_8  and  C8_9
REMARK    3  A    between atoms: C7_8  and  C9_10
REMARK                            x       y       z     vdW  Elec       q    Type
REMARK                         _______ _______ _______ _____ _____    ______ ____
ROOT
ATOM      1  C1  UNL     1      -3.922  32.780  30.103  0.00  0.00    +0.000 C 
ATOM      2  C2  UNL     1      -2.679  33.522  29.675  0.00  0.00    +0.000 C 
ATOM      3  C3  UNL     1      -2.627  34.838  29.935  0.00  0.00    +0.000 C 
ATOM      4  C4  UNL     1      -1.463  35.641  29.558  0.00  0.00    +0.000 C 
ATOM      5  O1  UNL     1      -1.436  36.875  29.812  0.00  0.00    +0.000 OA
ATOM      6  C5  UNL     1      -0.333  35.007  28.886  0.00  0.00    +0.000 C 
ATOM      7  C6  UNL     1      -0.354  33.702  28.614  0.00  0.00    +0.000 C 
ATOM      8  C7  UNL     1      -1.522  32.788  28.969  0.00  0.00    +0.000 C 
ATOM      9  C8  UNL     1      -2.032  32.166  27.654  0.00  0.00    +0.000 C 
ATOM     10  C9  UNL     1      -0.974  31.682  29.891  0.00  0.00    +0.000 C 
ENDROOT
TORSDOF 0
ENDMDL
MODEL 4
REMARK VINA RESULT:      -3.8      1.580      2.940
REMARK  Name = .\Carvone.pdb
REMARK  3 active torsions:
REMARK  status: ('A' for Active; 'I' for Inactive)
REMARK    1  A    between atoms: C1_1  and  C2_2
REMARK    2  A    between atoms: C7_8  and  C8_9
REMARK    3  A    between atoms: C7_8  and  C9_10
REMARK                            x       y       z     vdW  Elec       q    Type
REMARK                         _______ _______ _______ _____ _____    ______ ____
ROOT
ATOM      1  C1  UNL     1      -2.002  35.523  29.266  0.00  0.00    +0.000 C 
ATOM      2  C2  UNL     1      -1.821  34.149  29.865  0.00  0.00    +0.000 C 
ATOM      3  C3  UNL     1      -2.258  33.962  31.120  0.00  0.00    +0.000 C 
ATOM      4  C4  UNL     1      -2.126  32.665  31.785  0.00  0.00    +0.000 C 
ATOM      5  O1  UNL     1      -2.544  32.513  32.963  0.00  0.00    +0.000 OA
ATOM      6  C5  UNL     1      -1.508  31.548  31.076  0.00  0.00    +0.000 C 
ATOM      7  C6  UNL     1      -1.065  31.702  29.829  0.00  0.00    +0.000 C 
ATOM      8  C7  UNL     1      -1.159  33.014  29.059  0.00  0.00    +0.000 C 
ATOM      9  C8  UNL     1       0.276  33.424  28.674  0.00  0.00    +0.000 C 
ATOM     10  C9  UNL     1      -1.982  32.739  27.785  0.00  0.00    +0.000 C 
ENDROOT
TORSDOF 0
ENDMDL
MODEL 5
REMARK VINA RESULT:      -3.8      1.593      3.141
REMARK  Name = .\Carvone.pdb
REMARK  3 active torsions:
REMARK  status: ('A' for Active; 'I' for Inactive)
REMARK    1  A    between atoms: C1_1  and  C2_2
REMARK    2  A    between atoms: C7_8  and  C8_9
REMARK    3  A    between atoms: C7_8  and  C9_10
REMARK                            x       y       z     vdW  Elec       q    Type
REMARK                         _______ _______ _______ _____ _____    ______ ____
ROOT
ATOM      1  C1  UNL     1      -2.105  35.368  28.856  0.00  0.00    +0.000 C 
ATOM      2  C2  UNL     1      -2.090  34.695  30.207  0.00  0.00    +0.000 C 
ATOM      3  C3  UNL     1      -1.651  35.417  31.249  0.00  0.00    +0.000 C 
ATOM      4  C4  UNL     1      -1.600  34.851  32.598  0.00  0.00    +0.000 C 
ATOM      5  O1  UNL     1      -1.185  35.548  33.562  0.00  0.00    +0.000 OA
ATOM      6  C5  UNL     1      -2.034  33.475  32.822  0.00  0.00    +0.000 C 
ATOM      7  C6  UNL     1      -2.476  32.732  31.807  0.00  0.00    +0.000 C 
ATOM      8  C7  UNL     1      -2.563  33.237  30.372  0.00  0.00    +0.000 C 
ATOM      9  C8  UNL     1      -1.687  32.311  29.506  0.00  0.00    +0.000 C 
ATOM     10  C9  UNL     1      -4.036  33.121  29.934  0.00  0.00    +0.000 C 
ENDROOT
TORSDOF 0
ENDMDL
MODEL 6
REMARK VINA RESULT:      -3.6      2.125      3.594
REMARK  Name = .\Carvone.pdb
REMARK  3 active torsions:
REMARK  status: ('A' for Active; 'I' for Inactive)
REMARK    1  A    between atoms: C1_1  and  C2_2
REMARK    2  A    between atoms: C7_8  and  C8_9
REMARK    3  A    between atoms: C7_8  and  C9_10
REMARK                            x       y       z     vdW  Elec       q    Type
REMARK                         _______ _______ _______ _____ _____    ______ ____
ROOT
ATOM      1  C1  UNL     1      -1.976  35.776  30.240  0.00  0.00    +0.000 C 
ATOM      2  C2  UNL     1      -1.440  34.410  29.886  0.00  0.00    +0.000 C 
ATOM      3  C3  UNL     1      -0.331  34.361  29.131  0.00  0.00    +0.000 C 
ATOM      4  C4  UNL     1       0.263  33.083  28.736  0.00  0.00    +0.000 C 
ATOM      5  O1  UNL     1       1.304  33.061  28.027  0.00  0.00    +0.000 OA
ATOM      6  C5  UNL     1      -0.355  31.833  29.169  0.00  0.00    +0.000 C 
ATOM      7  C6  UNL     1      -1.456  31.849  29.920  0.00  0.00    +0.000 C 
ATOM      8  C7  UNL     1      -2.144  33.130  30.377  0.00  0.00    +0.000 C 
ATOM      9  C8  UNL     1      -3.586  33.095  29.834  0.00  0.00    +0.000 C 
ATOM     10  C9  UNL     1      -2.166  33.113  31.918  0.00  0.00    +0.000 C 
ENDROOT
TORSDOF 0
ENDMDL
MODEL 7
REMARK VINA RESULT:      -3.4      1.565      2.268
REMARK  Name = .\Carvone.pdb
REMARK  3 active torsions:
REMARK  status: ('A' for Active; 'I' for Inactive)
REMARK    1  A    between atoms: C1_1  and  C2_2
REMARK    2  A    between atoms: C7_8  and  C8_9
REMARK    3  A    between atoms: C7_8  and  C9_10
REMARK                            x       y       z     vdW  Elec       q    Type
REMARK                         _______ _______ _______ _____ _____    ______ ____
ROOT
ATOM      1  C1  UNL     1      -2.272  32.317  32.985  0.00  0.00    +0.000 C 
ATOM      2  C2  UNL     1      -2.307  33.124  31.711  0.00  0.00    +0.000 C 
ATOM      3  C3  UNL     1      -2.006  34.430  31.799  0.00  0.00    +0.000 C 
ATOM      4  C4  UNL     1      -2.013  35.294  30.618  0.00  0.00    +0.000 C 
ATOM      5  O1  UNL     1      -1.727  36.515  30.725  0.00  0.00    +0.000 OA
ATOM      6  C5  UNL     1      -2.355  34.733  29.314  0.00  0.00    +0.000 C 
ATOM      7  C6  UNL     1      -2.658  33.440  29.193  0.00  0.00    +0.000 C 
ATOM      8  C7  UNL     1      -2.676  32.467  30.366  0.00  0.00    +0.000 C 
ATOM      9  C8  UNL     1      -4.099  31.881  30.453  0.00  0.00    +0.000 C 
ATOM     10  C9  UNL     1      -1.669  31.346  30.047  0.00  0.00    +0.000 C 
ENDROOT
TORSDOF 0
ENDMDL
MODEL 8
REMARK VINA RESULT:      -3.4      2.257      3.337
REMARK  Name = .\Carvone.pdb
REMARK  3 active torsions:
REMARK  status: ('A' for Active; 'I' for Inactive)
REMARK    1  A    between atoms: C1_1  and  C2_2
REMARK    2  A    between atoms: C7_8  and  C8_9
REMARK    3  A    between atoms: C7_8  and  C9_10
REMARK                            x       y       z     vdW  Elec       q    Type
REMARK                         _______ _______ _______ _____ _____    ______ ____
ROOT
ATOM      1  C1  UNL     1      -1.742  31.540  31.628  0.00  0.00    +0.000 C 
ATOM      2  C2  UNL     1      -1.488  32.389  30.406  0.00  0.00    +0.000 C 
ATOM      3  C3  UNL     1      -0.523  31.986  29.565  0.00  0.00    +0.000 C 
ATOM      4  C4  UNL     1      -0.205  32.744  28.354  0.00  0.00    +0.000 C 
ATOM      5  O1  UNL     1       0.705  32.346  27.579  0.00  0.00    +0.000 OA
ATOM      6  C5  UNL     1      -0.946  33.964  28.048  0.00  0.00    +0.000 C 
ATOM      7  C6  UNL     1      -1.911  34.390  28.864  0.00  0.00    +0.000 C 
ATOM      8  C7  UNL     1      -2.311  33.666  30.145  0.00  0.00    +0.000 C 
ATOM      9  C8  UNL     1      -2.111  34.655  31.310  0.00  0.00    +0.000 C 
ATOM     10  C9  UNL     1      -3.803  33.302  30.019  0.00  0.00    +0.000 C 
ENDROOT
TORSDOF 0
ENDMDL
MODEL 9
REMARK VINA RESULT:      -3.3      1.718      2.489
REMARK  Name = .\Carvone.pdb
REMARK  3 active torsions:
REMARK  status: ('A' for Active; 'I' for Inactive)
REMARK    1  A    between atoms: C1_1  and  C2_2
REMARK    2  A    between atoms: C7_8  and  C8_9
REMARK    3  A    between atoms: C7_8  and  C9_10
REMARK                            x       y       z     vdW  Elec       q    Type
REMARK                         _______ _______ _______ _____ _____    ______ ____
ROOT
ATOM      1  C1  UNL     1       0.394  31.298  29.165  0.00  0.00    +0.000 C 
ATOM      2  C2  UNL     1      -0.700  32.127  29.791  0.00  0.00    +0.000 C 
ATOM      3  C3  UNL     1      -1.145  31.748  31.000  0.00  0.00    +0.000 C 
ATOM      4  C4  UNL     1      -2.203  32.490  31.687  0.00  0.00    +0.000 C 
ATOM      5  O1  UNL     1      -2.604  32.116  32.821  0.00  0.00    +0.000 OA
ATOM      6  C5  UNL     1      -2.793  33.665  31.052  0.00  0.00    +0.000 C 
ATOM      7  C6  UNL     1      -2.373  34.067  29.853  0.00  0.00    +0.000 C 
ATOM      8  C7  UNL     1      -1.278  33.358  29.064  0.00  0.00    +0.000 C 
ATOM      9  C8  UNL     1      -1.891  32.920  27.719  0.00  0.00    +0.000 C 
ATOM     10  C9  UNL     1      -0.155  34.383  28.816  0.00  0.00    +0.000 C 
ENDROOT
TORSDOF 0
ENDMDL
