MODEL 1
REMARK VINA RESULT:      -5.5      0.000      0.000
REMARK  Name = .\Carvone.pdb
REMARK  3 active torsions:
REMARK  status: ('A' for Active; 'I' for Inactive)
REMARK    1  A    between atoms: C1_1  and  C2_2
REMARK    2  A    between atoms: C7_8  and  C8_9
REMARK    3  A    between atoms: C7_8  and  C9_10
REMARK                            x       y       z     vdW  Elec       q    Type
REMARK                         _______ _______ _______ _____ _____    ______ ____
ROOT
ATOM      1  C1  UNL     1     -19.795  53.002 -30.189  0.00  0.00    +0.000 C 
ATOM      2  C2  UNL     1     -18.949  54.139 -29.671  0.00  0.00    +0.000 C 
ATOM      3  C3  UNL     1     -19.173  55.358 -30.186  0.00  0.00    +0.000 C 
ATOM      4  C4  UNL     1     -18.403  56.522 -29.746  0.00  0.00    +0.000 C 
ATOM      5  O1  UNL     1     -18.631  57.657 -30.243  0.00  0.00    +0.000 OA
ATOM      6  C5  UNL     1     -17.369  56.363 -28.727  0.00  0.00    +0.000 C 
ATOM      7  C6  UNL     1     -17.123  55.165 -28.196  0.00  0.00    +0.000 C 
ATOM      8  C7  UNL     1     -17.874  53.899 -28.592  0.00  0.00    +0.000 C 
ATOM      9  C8  UNL     1     -16.831  52.895 -29.120  0.00  0.00    +0.000 C 
ATOM     10  C9  UNL     1     -18.537  53.342 -27.318  0.00  0.00    +0.000 C 
ENDROOT
TORSDOF 0
ENDMDL
MODEL 2
REMARK VINA RESULT:      -4.7      1.963      3.395
REMARK  Name = .\Carvone.pdb
REMARK  3 active torsions:
REMARK  status: ('A' for Active; 'I' for Inactive)
REMARK    1  A    between atoms: C1_1  and  C2_2
REMARK    2  A    between atoms: C7_8  and  C8_9
REMARK    3  A    between atoms: C7_8  and  C9_10
REMARK                            x       y       z     vdW  Elec       q    Type
REMARK                         _______ _______ _______ _____ _____    ______ ____
ROOT
ATOM      1  C1  UNL     1     -20.240  55.375 -31.091  0.00  0.00    +0.000 C 
ATOM      2  C2  UNL     1     -19.131  55.188 -30.083  0.00  0.00    +0.000 C 
ATOM      3  C3  UNL     1     -18.823  53.929 -29.734  0.00  0.00    +0.000 C 
ATOM      4  C4  UNL     1     -17.763  53.648 -28.764  0.00  0.00    +0.000 C 
ATOM      5  O1  UNL     1     -17.491  52.459 -28.451  0.00  0.00    +0.000 OA
ATOM      6  C5  UNL     1     -17.023  54.752 -28.161  0.00  0.00    +0.000 C 
ATOM      7  C6  UNL     1     -17.305  56.013 -28.488  0.00  0.00    +0.000 C 
ATOM      8  C7  UNL     1     -18.390  56.400 -29.486  0.00  0.00    +0.000 C 
ATOM      9  C8  UNL     1     -19.394  57.304 -28.743  0.00  0.00    +0.000 C 
ATOM     10  C9  UNL     1     -17.710  57.197 -30.617  0.00  0.00    +0.000 C 
ENDROOT
TORSDOF 0
ENDMDL
MODEL 3
REMARK VINA RESULT:      -4.1      6.211      7.754
REMARK  Name = .\Carvone.pdb
REMARK  3 active torsions:
REMARK  status: ('A' for Active; 'I' for Inactive)
REMARK    1  A    between atoms: C1_1  and  C2_2
REMARK    2  A    between atoms: C7_8  and  C8_9
REMARK    3  A    between atoms: C7_8  and  C9_10
REMARK                            x       y       z     vdW  Elec       q    Type
REMARK                         _______ _______ _______ _____ _____    ______ ____
ROOT
ATOM      1  C1  UNL     1     -16.712  46.892 -23.441  0.00  0.00    +0.000 C 
ATOM      2  C2  UNL     1     -16.910  47.950 -24.499  0.00  0.00    +0.000 C 
ATOM      3  C3  UNL     1     -18.103  47.991 -25.113  0.00  0.00    +0.000 C 
ATOM      4  C4  UNL     1     -18.389  48.982 -26.152  0.00  0.00    +0.000 C 
ATOM      5  O1  UNL     1     -19.516  49.002 -26.715  0.00  0.00    +0.000 OA
ATOM      6  C5  UNL     1     -17.363  49.948 -26.533  0.00  0.00    +0.000 C 
ATOM      7  C6  UNL     1     -16.168  49.933 -25.941  0.00  0.00    +0.000 C 
ATOM      8  C7  UNL     1     -15.782  48.939 -24.852  0.00  0.00    +0.000 C 
ATOM      9  C8  UNL     1     -14.553  48.159 -25.358  0.00  0.00    +0.000 C 
ATOM     10  C9  UNL     1     -15.402  49.755 -23.601  0.00  0.00    +0.000 C 
ENDROOT
TORSDOF 0
ENDMDL
MODEL 4
REMARK VINA RESULT:      -4.1      5.556      7.225
REMARK  Name = .\Carvone.pdb
REMARK  3 active torsions:
REMARK  status: ('A' for Active; 'I' for Inactive)
REMARK    1  A    between atoms: C1_1  and  C2_2
REMARK    2  A    between atoms: C7_8  and  C8_9
REMARK    3  A    between atoms: C7_8  and  C9_10
REMARK                            x       y       z     vdW  Elec       q    Type
REMARK                         _______ _______ _______ _____ _____    ______ ____
ROOT
ATOM      1  C1  UNL     1     -14.645  48.476 -25.486  0.00  0.00    +0.000 C 
ATOM      2  C2  UNL     1     -16.076  48.830 -25.812  0.00  0.00    +0.000 C 
ATOM      3  C3  UNL     1     -16.290  49.979 -26.473  0.00  0.00    +0.000 C 
ATOM      4  C4  UNL     1     -17.643  50.407 -26.834  0.00  0.00    +0.000 C 
ATOM      5  O1  UNL     1     -17.820  51.488 -27.455  0.00  0.00    +0.000 OA
ATOM      6  C5  UNL     1     -18.786  49.575 -26.470  0.00  0.00    +0.000 C 
ATOM      7  C6  UNL     1     -18.606  48.429 -25.814  0.00  0.00    +0.000 C 
ATOM      8  C7  UNL     1     -17.236  47.904 -25.398  0.00  0.00    +0.000 C 
ATOM      9  C8  UNL     1     -17.251  47.751 -23.864  0.00  0.00    +0.000 C 
ATOM     10  C9  UNL     1     -17.055  46.524 -26.058  0.00  0.00    +0.000 C 
ENDROOT
TORSDOF 0
ENDMDL
MODEL 5
REMARK VINA RESULT:      -3.9      6.618      8.214
REMARK  Name = .\Carvone.pdb
REMARK  3 active torsions:
REMARK  status: ('A' for Active; 'I' for Inactive)
REMARK    1  A    between atoms: C1_1  and  C2_2
REMARK    2  A    between atoms: C7_8  and  C8_9
REMARK    3  A    between atoms: C7_8  and  C9_10
REMARK                            x       y       z     vdW  Elec       q    Type
REMARK                         _______ _______ _______ _____ _____    ______ ____
ROOT
ATOM      1  C1  UNL     1     -18.641  48.186 -25.161  0.00  0.00    +0.000 C 
ATOM      2  C2  UNL     1     -17.336  48.026 -25.903  0.00  0.00    +0.000 C 
ATOM      3  C3  UNL     1     -17.128  46.862 -26.538  0.00  0.00    +0.000 C 
ATOM      4  C4  UNL     1     -15.893  46.614 -27.284  0.00  0.00    +0.000 C 
ATOM      5  O1  UNL     1     -15.719  45.514 -27.873  0.00  0.00    +0.000 OA
ATOM      6  C5  UNL     1     -14.863  47.648 -27.343  0.00  0.00    +0.000 C 
ATOM      7  C6  UNL     1     -15.041  48.814 -26.723  0.00  0.00    +0.000 C 
ATOM      8  C7  UNL     1     -16.292  49.160 -25.924  0.00  0.00    +0.000 C 
ATOM      9  C8  UNL     1     -15.844  49.474 -24.483  0.00  0.00    +0.000 C 
ATOM     10  C9  UNL     1     -16.911  50.418 -26.563  0.00  0.00    +0.000 C 
ENDROOT
TORSDOF 0
ENDMDL
MODEL 6
REMARK VINA RESULT:      -3.8      5.609      6.962
REMARK  Name = .\Carvone.pdb
REMARK  3 active torsions:
REMARK  status: ('A' for Active; 'I' for Inactive)
REMARK    1  A    between atoms: C1_1  and  C2_2
REMARK    2  A    between atoms: C7_8  and  C8_9
REMARK    3  A    between atoms: C7_8  and  C9_10
REMARK                            x       y       z     vdW  Elec       q    Type
REMARK                         _______ _______ _______ _____ _____    ______ ____
ROOT
ATOM      1  C1  UNL     1     -19.137  47.328 -25.302  0.00  0.00    +0.000 C 
ATOM      2  C2  UNL     1     -18.049  48.249 -25.798  0.00  0.00    +0.000 C 
ATOM      3  C3  UNL     1     -18.427  49.436 -26.298  0.00  0.00    +0.000 C 
ATOM      4  C4  UNL     1     -17.444  50.396 -26.803  0.00  0.00    +0.000 C 
ATOM      5  O1  UNL     1     -17.823  51.504 -27.267  0.00  0.00    +0.000 OA
ATOM      6  C5  UNL     1     -16.023  50.064 -26.767  0.00  0.00    +0.000 C 
ATOM      7  C6  UNL     1     -15.616  48.893 -26.276  0.00  0.00    +0.000 C 
ATOM      8  C7  UNL     1     -16.566  47.834 -25.729  0.00  0.00    +0.000 C 
ATOM      9  C8  UNL     1     -16.351  46.553 -26.559  0.00  0.00    +0.000 C 
ATOM     10  C9  UNL     1     -16.171  47.577 -24.262  0.00  0.00    +0.000 C 
ENDROOT
TORSDOF 0
ENDMDL
MODEL 7
REMARK VINA RESULT:      -3.8      6.643      7.936
REMARK  Name = .\Carvone.pdb
REMARK  3 active torsions:
REMARK  status: ('A' for Active; 'I' for Inactive)
REMARK    1  A    between atoms: C1_1  and  C2_2
REMARK    2  A    between atoms: C7_8  and  C8_9
REMARK    3  A    between atoms: C7_8  and  C9_10
REMARK                            x       y       z     vdW  Elec       q    Type
REMARK                         _______ _______ _______ _____ _____    ______ ____
ROOT
ATOM      1  C1  UNL     1     -15.786  46.140 -25.696  0.00  0.00    +0.000 C 
ATOM      2  C2  UNL     1     -16.811  47.213 -25.975  0.00  0.00    +0.000 C 
ATOM      3  C3  UNL     1     -18.027  46.813 -26.378  0.00  0.00    +0.000 C 
ATOM      4  C4  UNL     1     -19.086  47.779 -26.673  0.00  0.00    +0.000 C 
ATOM      5  O1  UNL     1     -20.220  47.381 -27.049  0.00  0.00    +0.000 OA
ATOM      6  C5  UNL     1     -18.822  49.208 -26.529  0.00  0.00    +0.000 C 
ATOM      7  C6  UNL     1     -17.625  49.637 -26.130  0.00  0.00    +0.000 C 
ATOM      8  C7  UNL     1     -16.464  48.705 -25.801  0.00  0.00    +0.000 C 
ATOM      9  C8  UNL     1     -15.299  49.076 -26.741  0.00  0.00    +0.000 C 
ATOM     10  C9  UNL     1     -16.060  48.973 -24.339  0.00  0.00    +0.000 C 
ENDROOT
TORSDOF 0
ENDMDL
MODEL 8
REMARK VINA RESULT:      -3.7      4.325      5.864
REMARK  Name = .\Carvone.pdb
REMARK  3 active torsions:
REMARK  status: ('A' for Active; 'I' for Inactive)
REMARK    1  A    between atoms: C1_1  and  C2_2
REMARK    2  A    between atoms: C7_8  and  C8_9
REMARK    3  A    between atoms: C7_8  and  C9_10
REMARK                            x       y       z     vdW  Elec       q    Type
REMARK                         _______ _______ _______ _____ _____    ______ ____
ROOT
ATOM      1  C1  UNL     1     -23.369  54.279 -35.534  0.00  0.00    +0.000 C 
ATOM      2  C2  UNL     1     -22.429  54.320 -34.353  0.00  0.00    +0.000 C 
ATOM      3  C3  UNL     1     -21.575  55.353 -34.282  0.00  0.00    +0.000 C 
ATOM      4  C4  UNL     1     -20.626  55.480 -33.175  0.00  0.00    +0.000 C 
ATOM      5  O1  UNL     1     -19.834  56.458 -33.129  0.00  0.00    +0.000 OA
ATOM      6  C5  UNL     1     -20.601  54.467 -32.124  0.00  0.00    +0.000 C 
ATOM      7  C6  UNL     1     -21.437  53.429 -32.166  0.00  0.00    +0.000 C 
ATOM      8  C7  UNL     1     -22.457  53.216 -33.279  0.00  0.00    +0.000 C 
ATOM      9  C8  UNL     1     -22.146  51.854 -33.931  0.00  0.00    +0.000 C 
ATOM     10  C9  UNL     1     -23.850  53.173 -32.621  0.00  0.00    +0.000 C 
ENDROOT
TORSDOF 0
ENDMDL
MODEL 9
REMARK VINA RESULT:      -3.6      4.706      6.379
REMARK  Name = .\Carvone.pdb
REMARK  3 active torsions:
REMARK  status: ('A' for Active; 'I' for Inactive)
REMARK    1  A    between atoms: C1_1  and  C2_2
REMARK    2  A    between atoms: C7_8  and  C8_9
REMARK    3  A    between atoms: C7_8  and  C9_10
REMARK                            x       y       z     vdW  Elec       q    Type
REMARK                         _______ _______ _______ _____ _____    ______ ____
ROOT
ATOM      1  C1  UNL     1     -21.428  55.980 -34.720  0.00  0.00    +0.000 C 
ATOM      2  C2  UNL     1     -21.026  54.569 -34.364  0.00  0.00    +0.000 C 
ATOM      3  C3  UNL     1     -20.450  53.832 -35.327  0.00  0.00    +0.000 C 
ATOM      4  C4  UNL     1     -20.026  52.453 -35.077  0.00  0.00    +0.000 C 
ATOM      5  O1  UNL     1     -19.487  51.781 -35.995  0.00  0.00    +0.000 OA
ATOM      6  C5  UNL     1     -20.230  51.861 -33.758  0.00  0.00    +0.000 C 
ATOM      7  C6  UNL     1     -20.799  52.568 -32.781  0.00  0.00    +0.000 C 
ATOM      8  C7  UNL     1     -21.271  54.008 -32.950  0.00  0.00    +0.000 C 
ATOM      9  C8  UNL     1     -22.781  54.033 -32.640  0.00  0.00    +0.000 C 
ATOM     10  C9  UNL     1     -20.512  54.863 -31.917  0.00  0.00    +0.000 C 
ENDROOT
TORSDOF 0
ENDMDL
