MODEL 1
REMARK VINA RESULT:      -3.1      0.000      0.000
REMARK  Name = .\Carvone.pdb
REMARK  3 active torsions:
REMARK  status: ('A' for Active; 'I' for Inactive)
REMARK    1  A    between atoms: C1_1  and  C2_2
REMARK    2  A    between atoms: C7_8  and  C8_9
REMARK    3  A    between atoms: C7_8  and  C9_10
REMARK                            x       y       z     vdW  Elec       q    Type
REMARK                         _______ _______ _______ _____ _____    ______ ____
ROOT
ATOM      1  C1  UNL     1      -3.868 101.601  81.195  0.00  0.00    +0.000 C 
ATOM      2  C2  UNL     1      -3.184 100.326  81.625  0.00  0.00    +0.000 C 
ATOM      3  C3  UNL     1      -3.943  99.223  81.721  0.00  0.00    +0.000 C 
ATOM      4  C4  UNL     1      -3.370  97.940  82.130  0.00  0.00    +0.000 C 
ATOM      5  O1  UNL     1      -4.102  96.918  82.213  0.00  0.00    +0.000 OA
ATOM      6  C5  UNL     1      -1.947  97.849  82.441  0.00  0.00    +0.000 C 
ATOM      7  C6  UNL     1      -1.167  98.927  82.355  0.00  0.00    +0.000 C 
ATOM      8  C7  UNL     1      -1.675 100.302  81.938  0.00  0.00    +0.000 C 
ATOM      9  C8  UNL     1      -1.375 101.272  83.097  0.00  0.00    +0.000 C 
ATOM     10  C9  UNL     1      -0.882 100.724  80.686  0.00  0.00    +0.000 C 
ENDROOT
TORSDOF 0
ENDMDL
MODEL 2
REMARK VINA RESULT:      -3.1      0.495      2.549
REMARK  Name = .\Carvone.pdb
REMARK  3 active torsions:
REMARK  status: ('A' for Active; 'I' for Inactive)
REMARK    1  A    between atoms: C1_1  and  C2_2
REMARK    2  A    between atoms: C7_8  and  C8_9
REMARK    3  A    between atoms: C7_8  and  C9_10
REMARK                            x       y       z     vdW  Elec       q    Type
REMARK                         _______ _______ _______ _____ _____    ______ ____
ROOT
ATOM      1  C1  UNL     1       0.231  98.964  82.707  0.00  0.00    +0.000 C 
ATOM      2  C2  UNL     1      -1.235  99.082  82.369  0.00  0.00    +0.000 C 
ATOM      3  C3  UNL     1      -1.977  97.965  82.445  0.00  0.00    +0.000 C 
ATOM      4  C4  UNL     1      -3.408  97.980  82.137  0.00  0.00    +0.000 C 
ATOM      5  O1  UNL     1      -4.083  96.920  82.216  0.00  0.00    +0.000 OA
ATOM      6  C5  UNL     1      -4.048  99.230  81.737  0.00  0.00    +0.000 C 
ATOM      7  C6  UNL     1      -3.339 100.355  81.652  0.00  0.00    +0.000 C 
ATOM      8  C7  UNL     1      -1.847 100.434  81.954  0.00  0.00    +0.000 C 
ATOM      9  C8  UNL     1      -1.148 100.946  80.679  0.00  0.00    +0.000 C 
ATOM     10  C9  UNL     1      -1.664 101.454  83.094  0.00  0.00    +0.000 C 
ENDROOT
TORSDOF 0
ENDMDL
MODEL 3
REMARK VINA RESULT:      -2.7      1.909      3.268
REMARK  Name = .\Carvone.pdb
REMARK  3 active torsions:
REMARK  status: ('A' for Active; 'I' for Inactive)
REMARK    1  A    between atoms: C1_1  and  C2_2
REMARK    2  A    between atoms: C7_8  and  C8_9
REMARK    3  A    between atoms: C7_8  and  C9_10
REMARK                            x       y       z     vdW  Elec       q    Type
REMARK                         _______ _______ _______ _____ _____    ______ ____
ROOT
ATOM      1  C1  UNL     1      -3.440  97.206  82.080  0.00  0.00    +0.000 C 
ATOM      2  C2  UNL     1      -2.871  98.569  81.770  0.00  0.00    +0.000 C 
ATOM      3  C3  UNL     1      -3.731  99.599  81.722  0.00  0.00    +0.000 C 
ATOM      4  C4  UNL     1      -3.273 100.958  81.429  0.00  0.00    +0.000 C 
ATOM      5  O1  UNL     1      -4.098 101.909  81.389  0.00  0.00    +0.000 OA
ATOM      6  C5  UNL     1      -1.856 101.206  81.182  0.00  0.00    +0.000 C 
ATOM      7  C6  UNL     1      -0.977 100.205  81.223  0.00  0.00    +0.000 C 
ATOM      8  C7  UNL     1      -1.362  98.760  81.520  0.00  0.00    +0.000 C 
ATOM      9  C8  UNL     1      -0.930  97.912  80.307  0.00  0.00    +0.000 C 
ATOM     10  C9  UNL     1      -0.573  98.323  82.769  0.00  0.00    +0.000 C 
ENDROOT
TORSDOF 0
ENDMDL
MODEL 4
REMARK VINA RESULT:      -2.7      1.828      2.678
REMARK  Name = .\Carvone.pdb
REMARK  3 active torsions:
REMARK  status: ('A' for Active; 'I' for Inactive)
REMARK    1  A    between atoms: C1_1  and  C2_2
REMARK    2  A    between atoms: C7_8  and  C8_9
REMARK    3  A    between atoms: C7_8  and  C9_10
REMARK                            x       y       z     vdW  Elec       q    Type
REMARK                         _______ _______ _______ _____ _____    ______ ____
ROOT
ATOM      1  C1  UNL     1      -1.277 101.616  79.746  0.00  0.00    +0.000 C 
ATOM      2  C2  UNL     1      -1.547 100.259  80.349  0.00  0.00    +0.000 C 
ATOM      3  C3  UNL     1      -0.971  99.199  79.760  0.00  0.00    +0.000 C 
ATOM      4  C4  UNL     1      -1.174  97.843  80.273  0.00  0.00    +0.000 C 
ATOM      5  O1  UNL     1      -0.623  96.863  79.705  0.00  0.00    +0.000 OA
ATOM      6  C5  UNL     1      -2.017  97.631  81.445  0.00  0.00    +0.000 C 
ATOM      7  C6  UNL     1      -2.602  98.663  82.052  0.00  0.00    +0.000 C 
ATOM      8  C7  UNL     1      -2.449 100.108  81.589  0.00  0.00    +0.000 C 
ATOM      9  C8  UNL     1      -3.860 100.639  81.268  0.00  0.00    +0.000 C 
ATOM     10  C9  UNL     1      -1.847 100.903  82.764  0.00  0.00    +0.000 C 
ENDROOT
TORSDOF 0
ENDMDL
MODEL 5
REMARK VINA RESULT:      -2.4      1.303      2.904
REMARK  Name = .\Carvone.pdb
REMARK  3 active torsions:
REMARK  status: ('A' for Active; 'I' for Inactive)
REMARK    1  A    between atoms: C1_1  and  C2_2
REMARK    2  A    between atoms: C7_8  and  C8_9
REMARK    3  A    between atoms: C7_8  and  C9_10
REMARK                            x       y       z     vdW  Elec       q    Type
REMARK                         _______ _______ _______ _____ _____    ______ ____
ROOT
ATOM      1  C1  UNL     1       0.032  98.772  82.505  0.00  0.00    +0.000 C 
ATOM      2  C2  UNL     1      -1.164  99.661  82.267  0.00  0.00    +0.000 C 
ATOM      3  C3  UNL     1      -2.346  99.060  82.055  0.00  0.00    +0.000 C 
ATOM      4  C4  UNL     1      -3.562  99.839  81.815  0.00  0.00    +0.000 C 
ATOM      5  O1  UNL     1      -4.659  99.253  81.619  0.00  0.00    +0.000 OA
ATOM      6  C5  UNL     1      -3.497 101.297  81.802  0.00  0.00    +0.000 C 
ATOM      7  C6  UNL     1      -2.339 101.924  82.010  0.00  0.00    +0.000 C 
ATOM      8  C7  UNL     1      -1.024 101.196  82.268  0.00  0.00    +0.000 C 
ATOM      9  C8  UNL     1      -0.039 101.624  81.161  0.00  0.00    +0.000 C 
ATOM     10  C9  UNL     1      -0.503 101.665  83.640  0.00  0.00    +0.000 C 
ENDROOT
TORSDOF 0
ENDMDL
MODEL 6
REMARK VINA RESULT:      -2.4      2.391      3.788
REMARK  Name = .\Carvone.pdb
REMARK  3 active torsions:
REMARK  status: ('A' for Active; 'I' for Inactive)
REMARK    1  A    between atoms: C1_1  and  C2_2
REMARK    2  A    between atoms: C7_8  and  C8_9
REMARK    3  A    between atoms: C7_8  and  C9_10
REMARK                            x       y       z     vdW  Elec       q    Type
REMARK                         _______ _______ _______ _____ _____    ______ ____
ROOT
ATOM      1  C1  UNL     1      -0.128  97.773  79.784  0.00  0.00    +0.000 C 
ATOM      2  C2  UNL     1      -1.173  98.714  80.331  0.00  0.00    +0.000 C 
ATOM      3  C3  UNL     1      -1.371  99.866  79.670  0.00  0.00    +0.000 C 
ATOM      4  C4  UNL     1      -2.363 100.842  80.125  0.00  0.00    +0.000 C 
ATOM      5  O1  UNL     1      -2.532 101.916  79.489  0.00  0.00    +0.000 OA
ATOM      6  C5  UNL     1      -3.154 100.566  81.320  0.00  0.00    +0.000 C 
ATOM      7  C6  UNL     1      -2.981  99.431  81.998  0.00  0.00    +0.000 C 
ATOM      8  C7  UNL     1      -1.974  98.359  81.599  0.00  0.00    +0.000 C 
ATOM      9  C8  UNL     1      -1.006  98.176  82.785  0.00  0.00    +0.000 C 
ATOM     10  C9  UNL     1      -2.761  97.055  81.363  0.00  0.00    +0.000 C 
ENDROOT
TORSDOF 0
ENDMDL
MODEL 7
REMARK VINA RESULT:      -2.3      1.819      2.506
REMARK  Name = .\Carvone.pdb
REMARK  3 active torsions:
REMARK  status: ('A' for Active; 'I' for Inactive)
REMARK    1  A    between atoms: C1_1  and  C2_2
REMARK    2  A    between atoms: C7_8  and  C8_9
REMARK    3  A    between atoms: C7_8  and  C9_10
REMARK                            x       y       z     vdW  Elec       q    Type
REMARK                         _______ _______ _______ _____ _____    ______ ____
ROOT
ATOM      1  C1  UNL     1      -4.205  99.202  81.762  0.00  0.00    +0.000 C 
ATOM      2  C2  UNL     1      -2.754  99.547  81.996  0.00  0.00    +0.000 C 
ATOM      3  C3  UNL     1      -1.935  98.549  82.363  0.00  0.00    +0.000 C 
ATOM      4  C4  UNL     1      -0.512  98.786  82.613  0.00  0.00    +0.000 C 
ATOM      5  O1  UNL     1       0.237  97.834  82.956  0.00  0.00    +0.000 OA
ATOM      6  C5  UNL     1       0.034 100.131  82.461  0.00  0.00    +0.000 C 
ATOM      7  C6  UNL     1      -0.753 101.144  82.097  0.00  0.00    +0.000 C 
ATOM      8  C7  UNL     1      -2.244 100.990  81.817  0.00  0.00    +0.000 C 
ATOM      9  C8  UNL     1      -2.991 101.925  82.789  0.00  0.00    +0.000 C 
ATOM     10  C9  UNL     1      -2.487 101.447  80.365  0.00  0.00    +0.000 C 
ENDROOT
TORSDOF 0
ENDMDL
MODEL 8
REMARK VINA RESULT:      -2.3      1.411      2.295
REMARK  Name = .\Carvone.pdb
REMARK  3 active torsions:
REMARK  status: ('A' for Active; 'I' for Inactive)
REMARK    1  A    between atoms: C1_1  and  C2_2
REMARK    2  A    between atoms: C7_8  and  C8_9
REMARK    3  A    between atoms: C7_8  and  C9_10
REMARK                            x       y       z     vdW  Elec       q    Type
REMARK                         _______ _______ _______ _____ _____    ______ ____
ROOT
ATOM      1  C1  UNL     1      -0.329 101.367  80.934  0.00  0.00    +0.000 C 
ATOM      2  C2  UNL     1      -1.235 100.207  81.268  0.00  0.00    +0.000 C 
ATOM      3  C3  UNL     1      -2.557 100.437  81.265  0.00  0.00    +0.000 C 
ATOM      4  C4  UNL     1      -3.514  99.375  81.577  0.00  0.00    +0.000 C 
ATOM      5  O1  UNL     1      -4.751  99.614  81.568  0.00  0.00    +0.000 OA
ATOM      6  C5  UNL     1      -3.030  98.036  81.900  0.00  0.00    +0.000 C 
ATOM      7  C6  UNL     1      -1.722  97.775  81.911  0.00  0.00    +0.000 C 
ATOM      8  C7  UNL     1      -0.654  98.818  81.599  0.00  0.00    +0.000 C 
ATOM      9  C8  UNL     1       0.258  98.922  82.837  0.00  0.00    +0.000 C 
ATOM     10  C9  UNL     1       0.156  98.298  80.396  0.00  0.00    +0.000 C 
ENDROOT
TORSDOF 0
ENDMDL
MODEL 9
REMARK VINA RESULT:      -2.2      1.578      2.819
REMARK  Name = .\Carvone.pdb
REMARK  3 active torsions:
REMARK  status: ('A' for Active; 'I' for Inactive)
REMARK    1  A    between atoms: C1_1  and  C2_2
REMARK    2  A    between atoms: C7_8  and  C8_9
REMARK    3  A    between atoms: C7_8  and  C9_10
REMARK                            x       y       z     vdW  Elec       q    Type
REMARK                         _______ _______ _______ _____ _____    ______ ____
ROOT
ATOM      1  C1  UNL     1       0.182 101.783  81.666  0.00  0.00    +0.000 C 
ATOM      2  C2  UNL     1      -0.787 100.644  81.864  0.00  0.00    +0.000 C 
ATOM      3  C3  UNL     1      -0.339  99.560  82.517  0.00  0.00    +0.000 C 
ATOM      4  C4  UNL     1      -1.206  98.405  82.757  0.00  0.00    +0.000 C 
ATOM      5  O1  UNL     1      -0.764  97.399  83.372  0.00  0.00    +0.000 OA
ATOM      6  C5  UNL     1      -2.585  98.423  82.278  0.00  0.00    +0.000 C 
ATOM      7  C6  UNL     1      -3.060  99.485  81.627  0.00  0.00    +0.000 C 
ATOM      8  C7  UNL     1      -2.232 100.731  81.332  0.00  0.00    +0.000 C 
ATOM      9  C8  UNL     1      -2.207 100.913  79.802  0.00  0.00    +0.000 C 
ATOM     10  C9  UNL     1      -2.951 101.925  81.988  0.00  0.00    +0.000 C 
ENDROOT
TORSDOF 0
ENDMDL
