MODEL 1
REMARK VINA RESULT:      -4.2      0.000      0.000
REMARK  Name = .\Carvone.pdb
REMARK  3 active torsions:
REMARK  status: ('A' for Active; 'I' for Inactive)
REMARK    1  A    between atoms: C1_1  and  C2_2
REMARK    2  A    between atoms: C7_8  and  C8_9
REMARK    3  A    between atoms: C7_8  and  C9_10
REMARK                            x       y       z     vdW  Elec       q    Type
REMARK                         _______ _______ _______ _____ _____    ______ ____
ROOT
ATOM      1  C1  UNL     1       0.664  72.530 133.180  0.00  0.00    +0.000 C 
ATOM      2  C2  UNL     1       1.851  71.877 132.513  0.00  0.00    +0.000 C 
ATOM      3  C3  UNL     1       2.940  72.636 132.314  0.00  0.00    +0.000 C 
ATOM      4  C4  UNL     1       4.139  72.092 131.675  0.00  0.00    +0.000 C 
ATOM      5  O1  UNL     1       5.149  72.823 131.498  0.00  0.00    +0.000 OA
ATOM      6  C5  UNL     1       4.159  70.698 131.243  0.00  0.00    +0.000 C 
ATOM      7  C6  UNL     1       3.093  69.918 131.427  0.00  0.00    +0.000 C 
ATOM      8  C7  UNL     1       1.803  70.398 132.083  0.00  0.00    +0.000 C 
ATOM      9  C8  UNL     1       0.668  70.195 131.060  0.00  0.00    +0.000 C 
ATOM     10  C9  UNL     1       1.559  69.509 133.318  0.00  0.00    +0.000 C 
ENDROOT
TORSDOF 0
ENDMDL
MODEL 2
REMARK VINA RESULT:      -4.1      2.474      3.675
REMARK  Name = .\Carvone.pdb
REMARK  3 active torsions:
REMARK  status: ('A' for Active; 'I' for Inactive)
REMARK    1  A    between atoms: C1_1  and  C2_2
REMARK    2  A    between atoms: C7_8  and  C8_9
REMARK    3  A    between atoms: C7_8  and  C9_10
REMARK                            x       y       z     vdW  Elec       q    Type
REMARK                         _______ _______ _______ _____ _____    ______ ____
ROOT
ATOM      1  C1  UNL     1       2.553  71.993 134.863  0.00  0.00    +0.000 C 
ATOM      2  C2  UNL     1       1.938  71.417 133.611  0.00  0.00    +0.000 C 
ATOM      3  C3  UNL     1       1.246  70.273 133.734  0.00  0.00    +0.000 C 
ATOM      4  C4  UNL     1       0.613  69.640 132.577  0.00  0.00    +0.000 C 
ATOM      5  O1  UNL     1      -0.032  68.567 132.717  0.00  0.00    +0.000 OA
ATOM      6  C5  UNL     1       0.732  70.257 131.259  0.00  0.00    +0.000 C 
ATOM      7  C6  UNL     1       1.411  71.393 131.104  0.00  0.00    +0.000 C 
ATOM      8  C7  UNL     1       2.102  72.122 132.250  0.00  0.00    +0.000 C 
ATOM      9  C8  UNL     1       3.600  72.216 131.897  0.00  0.00    +0.000 C 
ATOM     10  C9  UNL     1       1.495  73.537 132.326  0.00  0.00    +0.000 C 
ENDROOT
TORSDOF 0
ENDMDL
MODEL 3
REMARK VINA RESULT:      -4.1      2.420      3.963
REMARK  Name = .\Carvone.pdb
REMARK  3 active torsions:
REMARK  status: ('A' for Active; 'I' for Inactive)
REMARK    1  A    between atoms: C1_1  and  C2_2
REMARK    2  A    between atoms: C7_8  and  C8_9
REMARK    3  A    between atoms: C7_8  and  C9_10
REMARK                            x       y       z     vdW  Elec       q    Type
REMARK                         _______ _______ _______ _____ _____    ______ ____
ROOT
ATOM      1  C1  UNL     1       3.633  71.871 131.744  0.00  0.00    +0.000 C 
ATOM      2  C2  UNL     1       2.231  71.591 132.227  0.00  0.00    +0.000 C 
ATOM      3  C3  UNL     1       1.545  70.622 131.599  0.00  0.00    +0.000 C 
ATOM      4  C4  UNL     1       0.179  70.279 131.995  0.00  0.00    +0.000 C 
ATOM      5  O1  UNL     1      -0.445  69.366 131.392  0.00  0.00    +0.000 OA
ATOM      6  C5  UNL     1      -0.458  71.000 133.093  0.00  0.00    +0.000 C 
ATOM      7  C6  UNL     1       0.196  71.967 133.737  0.00  0.00    +0.000 C 
ATOM      8  C7  UNL     1       1.619  72.391 133.393  0.00  0.00    +0.000 C 
ATOM      9  C8  UNL     1       1.575  73.887 133.024  0.00  0.00    +0.000 C 
ATOM     10  C9  UNL     1       2.475  72.192 134.659  0.00  0.00    +0.000 C 
ENDROOT
TORSDOF 0
ENDMDL
MODEL 4
REMARK VINA RESULT:      -4.0      1.692      2.641
REMARK  Name = .\Carvone.pdb
REMARK  3 active torsions:
REMARK  status: ('A' for Active; 'I' for Inactive)
REMARK    1  A    between atoms: C1_1  and  C2_2
REMARK    2  A    between atoms: C7_8  and  C8_9
REMARK    3  A    between atoms: C7_8  and  C9_10
REMARK                            x       y       z     vdW  Elec       q    Type
REMARK                         _______ _______ _______ _____ _____    ______ ____
ROOT
ATOM      1  C1  UNL     1       0.748  68.814 134.363  0.00  0.00    +0.000 C 
ATOM      2  C2  UNL     1       1.446  69.488 133.206  0.00  0.00    +0.000 C 
ATOM      3  C3  UNL     1       2.758  69.248 133.054  0.00  0.00    +0.000 C 
ATOM      4  C4  UNL     1       3.520  69.855 131.962  0.00  0.00    +0.000 C 
ATOM      5  O1  UNL     1       4.750  69.615 131.839  0.00  0.00    +0.000 OA
ATOM      6  C5  UNL     1       2.848  70.741 131.017  0.00  0.00    +0.000 C 
ATOM      7  C6  UNL     1       1.546  70.999 131.140  0.00  0.00    +0.000 C 
ATOM      8  C7  UNL     1       0.674  70.412 132.244  0.00  0.00    +0.000 C 
ATOM      9  C8  UNL     1       0.077  71.594 133.034  0.00  0.00    +0.000 C 
ATOM     10  C9  UNL     1      -0.456  69.617 131.562  0.00  0.00    +0.000 C 
ENDROOT
TORSDOF 0
ENDMDL
MODEL 5
REMARK VINA RESULT:      -3.9      1.811      2.674
REMARK  Name = .\Carvone.pdb
REMARK  3 active torsions:
REMARK  status: ('A' for Active; 'I' for Inactive)
REMARK    1  A    between atoms: C1_1  and  C2_2
REMARK    2  A    between atoms: C7_8  and  C8_9
REMARK    3  A    between atoms: C7_8  and  C9_10
REMARK                            x       y       z     vdW  Elec       q    Type
REMARK                         _______ _______ _______ _____ _____    ______ ____
ROOT
ATOM      1  C1  UNL     1       2.701  71.864 135.178  0.00  0.00    +0.000 C 
ATOM      2  C2  UNL     1       2.510  71.595 133.705  0.00  0.00    +0.000 C 
ATOM      3  C3  UNL     1       3.357  70.732 133.122  0.00  0.00    +0.000 C 
ATOM      4  C4  UNL     1       3.252  70.408 131.699  0.00  0.00    +0.000 C 
ATOM      5  O1  UNL     1       4.057  69.595 131.173  0.00  0.00    +0.000 OA
ATOM      6  C5  UNL     1       2.208  71.031 130.890  0.00  0.00    +0.000 C 
ATOM      7  C6  UNL     1       1.351  71.892 131.440  0.00  0.00    +0.000 C 
ATOM      8  C7  UNL     1       1.385  72.288 132.912  0.00  0.00    +0.000 C 
ATOM      9  C8  UNL     1       1.581  73.816 132.969  0.00  0.00    +0.000 C 
ATOM     10  C9  UNL     1       0.020  71.914 133.519  0.00  0.00    +0.000 C 
ENDROOT
TORSDOF 0
ENDMDL
MODEL 6
REMARK VINA RESULT:      -3.9      1.225      1.324
REMARK  Name = .\Carvone.pdb
REMARK  3 active torsions:
REMARK  status: ('A' for Active; 'I' for Inactive)
REMARK    1  A    between atoms: C1_1  and  C2_2
REMARK    2  A    between atoms: C7_8  and  C8_9
REMARK    3  A    between atoms: C7_8  and  C9_10
REMARK                            x       y       z     vdW  Elec       q    Type
REMARK                         _______ _______ _______ _____ _____    ______ ____
ROOT
ATOM      1  C1  UNL     1       1.443  73.198 132.017  0.00  0.00    +0.000 C 
ATOM      2  C2  UNL     1       2.270  71.956 132.246  0.00  0.00    +0.000 C 
ATOM      3  C3  UNL     1       3.605  72.089 132.206  0.00  0.00    +0.000 C 
ATOM      4  C4  UNL     1       4.490  70.942 132.416  0.00  0.00    +0.000 C 
ATOM      5  O1  UNL     1       5.739  71.090 132.374  0.00  0.00    +0.000 OA
ATOM      6  C5  UNL     1       3.916  69.624 132.674  0.00  0.00    +0.000 C 
ATOM      7  C6  UNL     1       2.594  69.460 132.720  0.00  0.00    +0.000 C 
ATOM      8  C7  UNL     1       1.598  70.595 132.514  0.00  0.00    +0.000 C 
ATOM      9  C8  UNL     1       0.711  70.213 131.312  0.00  0.00    +0.000 C 
ATOM     10  C9  UNL     1       0.737  70.687 133.789  0.00  0.00    +0.000 C 
ENDROOT
TORSDOF 0
ENDMDL
MODEL 7
REMARK VINA RESULT:      -3.9      2.770      3.985
REMARK  Name = .\Carvone.pdb
REMARK  3 active torsions:
REMARK  status: ('A' for Active; 'I' for Inactive)
REMARK    1  A    between atoms: C1_1  and  C2_2
REMARK    2  A    between atoms: C7_8  and  C8_9
REMARK    3  A    between atoms: C7_8  and  C9_10
REMARK                            x       y       z     vdW  Elec       q    Type
REMARK                         _______ _______ _______ _____ _____    ______ ____
ROOT
ATOM      1  C1  UNL     1       1.181  71.025 130.977  0.00  0.00    +0.000 C 
ATOM      2  C2  UNL     1       1.700  70.102 132.052  0.00  0.00    +0.000 C 
ATOM      3  C3  UNL     1       0.809  69.306 132.663  0.00  0.00    +0.000 C 
ATOM      4  C4  UNL     1       1.218  68.378 133.719  0.00  0.00    +0.000 C 
ATOM      5  O1  UNL     1       0.364  67.639 134.278  0.00  0.00    +0.000 OA
ATOM      6  C5  UNL     1       2.620  68.311 134.121  0.00  0.00    +0.000 C 
ATOM      7  C6  UNL     1       3.529  69.089 133.533  0.00  0.00    +0.000 C 
ATOM      8  C7  UNL     1       3.195  70.084 132.427  0.00  0.00    +0.000 C 
ATOM      9  C8  UNL     1       3.620  71.480 132.923  0.00  0.00    +0.000 C 
ATOM     10  C9  UNL     1       4.031  69.693 131.192  0.00  0.00    +0.000 C 
ENDROOT
TORSDOF 0
ENDMDL
MODEL 8
REMARK VINA RESULT:      -3.8      1.982      2.999
REMARK  Name = .\Carvone.pdb
REMARK  3 active torsions:
REMARK  status: ('A' for Active; 'I' for Inactive)
REMARK    1  A    between atoms: C1_1  and  C2_2
REMARK    2  A    between atoms: C7_8  and  C8_9
REMARK    3  A    between atoms: C7_8  and  C9_10
REMARK                            x       y       z     vdW  Elec       q    Type
REMARK                         _______ _______ _______ _____ _____    ______ ____
ROOT
ATOM      1  C1  UNL     1       2.616  69.435 133.968  0.00  0.00    +0.000 C 
ATOM      2  C2  UNL     1       2.326  70.863 133.575  0.00  0.00    +0.000 C 
ATOM      3  C3  UNL     1       2.614  71.819 134.472  0.00  0.00    +0.000 C 
ATOM      4  C4  UNL     1       2.367  73.232 134.183  0.00  0.00    +0.000 C 
ATOM      5  O1  UNL     1       2.646  74.112 135.040  0.00  0.00    +0.000 OA
ATOM      6  C5  UNL     1       1.797  73.618 132.895  0.00  0.00    +0.000 C 
ATOM      7  C6  UNL     1       1.500  72.692 131.983  0.00  0.00    +0.000 C 
ATOM      8  C7  UNL     1       1.722  71.199 132.197  0.00  0.00    +0.000 C 
ATOM      9  C8  UNL     1       0.353  70.507 132.052  0.00  0.00    +0.000 C 
ATOM     10  C9  UNL     1       2.673  70.713 131.086  0.00  0.00    +0.000 C 
ENDROOT
TORSDOF 0
ENDMDL
MODEL 9
REMARK VINA RESULT:      -3.7      2.250      3.190
REMARK  Name = .\Carvone.pdb
REMARK  3 active torsions:
REMARK  status: ('A' for Active; 'I' for Inactive)
REMARK    1  A    between atoms: C1_1  and  C2_2
REMARK    2  A    between atoms: C7_8  and  C8_9
REMARK    3  A    between atoms: C7_8  and  C9_10
REMARK                            x       y       z     vdW  Elec       q    Type
REMARK                         _______ _______ _______ _____ _____    ______ ____
ROOT
ATOM      1  C1  UNL     1      -0.351  71.457 133.194  0.00  0.00    +0.000 C 
ATOM      2  C2  UNL     1       0.973  70.753 133.022  0.00  0.00    +0.000 C 
ATOM      3  C3  UNL     1       1.199  69.671 133.783  0.00  0.00    +0.000 C 
ATOM      4  C4  UNL     1       2.454  68.923 133.686  0.00  0.00    +0.000 C 
ATOM      5  O1  UNL     1       2.644  67.910 134.410  0.00  0.00    +0.000 OA
ATOM      6  C5  UNL     1       3.484  69.356 132.747  0.00  0.00    +0.000 C 
ATOM      7  C6  UNL     1       3.289  70.426 131.977  0.00  0.00    +0.000 C 
ATOM      8  C7  UNL     1       2.017  71.265 132.010  0.00  0.00    +0.000 C 
ATOM      9  C8  UNL     1       2.427  72.705 132.376  0.00  0.00    +0.000 C 
ATOM     10  C9  UNL     1       1.415  71.239 130.591  0.00  0.00    +0.000 C 
ENDROOT
TORSDOF 0
ENDMDL
