MODEL 1
REMARK VINA RESULT:      -5.1      0.000      0.000
REMARK  Name = .\Carvacrol.pdb
REMARK  5 active torsions:
REMARK  status: ('A' for Active; 'I' for Inactive)
REMARK    1  A    between atoms: C1_1  and  C2_2
REMARK    2  A    between atoms: C2_2  and  C3_3
REMARK    3  A    between atoms: C2_2  and  C4_4
REMARK    4  A    between atoms: C6_6  and  O1_11
REMARK    5  A    between atoms: C7_7  and  C10_10
REMARK                            x       y       z     vdW  Elec       q    Type
REMARK                         _______ _______ _______ _____ _____    ______ ____
ROOT
ATOM      1  C4  UNL     1     -19.823  83.841 126.949  0.00  0.00    +0.000 A 
ATOM      2  C5  UNL     1     -20.224  84.289 128.219  0.00  0.00    +0.000 A 
ATOM      3  C6  UNL     1     -19.980  85.610 128.623  0.00  0.00    +0.000 A 
ATOM      4  C7  UNL     1     -19.328  86.501 127.753  0.00  0.00    +0.000 A 
ATOM      5  C8  UNL     1     -18.926  86.056 126.484  0.00  0.00    +0.000 A 
ATOM      6  C9  UNL     1     -19.171  84.740 126.085  0.00  0.00    +0.000 A 
ATOM      7  C10 UNL     1     -19.063  87.917 128.179  0.00  0.00    +0.000 C 
ENDROOT
BRANCH   1   9
ATOM      8  C1  UNL     1     -20.978  82.360 125.275  0.00  0.00    +0.000 C 
ATOM      9  C2  UNL     1     -20.095  82.409 126.528  0.00  0.00    +0.000 C 
ATOM     10  C3  UNL     1     -18.787  81.638 126.312  0.00  0.00    +0.000 C 
ENDBRANCH   1   9
BRANCH   3  11
ATOM     11  O1  UNL     1     -20.384  86.039 129.888  0.00  0.00    +0.000 OA
ATOM     12  H14 UNL     1     -19.938  86.824 130.350  0.00  0.00    +0.000 HD
ENDBRANCH   3  11
TORSDOF 2
ENDMDL
MODEL 2
REMARK VINA RESULT:      -4.7      1.872      4.680
REMARK  Name = .\Carvacrol.pdb
REMARK  5 active torsions:
REMARK  status: ('A' for Active; 'I' for Inactive)
REMARK    1  A    between atoms: C1_1  and  C2_2
REMARK    2  A    between atoms: C2_2  and  C3_3
REMARK    3  A    between atoms: C2_2  and  C4_4
REMARK    4  A    between atoms: C6_6  and  O1_11
REMARK    5  A    between atoms: C7_7  and  C10_10
REMARK                            x       y       z     vdW  Elec       q    Type
REMARK                         _______ _______ _______ _____ _____    ______ ____
ROOT
ATOM      1  C4  UNL     1     -19.547  86.045 127.872  0.00  0.00    +0.000 A 
ATOM      2  C5  UNL     1     -19.199  85.613 126.581  0.00  0.00    +0.000 A 
ATOM      3  C6  UNL     1     -19.376  84.275 126.201  0.00  0.00    +0.000 A 
ATOM      4  C7  UNL     1     -19.906  83.349 127.116  0.00  0.00    +0.000 A 
ATOM      5  C8  UNL     1     -20.255  83.778 128.406  0.00  0.00    +0.000 A 
ATOM      6  C9  UNL     1     -20.078  85.112 128.781  0.00  0.00    +0.000 A 
ATOM      7  C10 UNL     1     -20.099  81.914 126.716  0.00  0.00    +0.000 C 
ENDROOT
BRANCH   1   9
ATOM      8  C1  UNL     1     -19.918  88.441 127.201  0.00  0.00    +0.000 C 
ATOM      9  C2  UNL     1     -19.349  87.496 128.266  0.00  0.00    +0.000 C 
ATOM     10  C3  UNL     1     -19.961  87.784 129.643  0.00  0.00    +0.000 C 
ENDBRANCH   1   9
BRANCH   3  11
ATOM     11  O1  UNL     1     -19.024  83.861 124.915  0.00  0.00    +0.000 OA
ATOM     12  H14 UNL     1     -19.411  84.305 124.090  0.00  0.00    +0.000 HD
ENDBRANCH   3  11
TORSDOF 2
ENDMDL
MODEL 3
REMARK VINA RESULT:      -4.7      2.381      4.711
REMARK  Name = .\Carvacrol.pdb
REMARK  5 active torsions:
REMARK  status: ('A' for Active; 'I' for Inactive)
REMARK    1  A    between atoms: C1_1  and  C2_2
REMARK    2  A    between atoms: C2_2  and  C3_3
REMARK    3  A    between atoms: C2_2  and  C4_4
REMARK    4  A    between atoms: C6_6  and  O1_11
REMARK    5  A    between atoms: C7_7  and  C10_10
REMARK                            x       y       z     vdW  Elec       q    Type
REMARK                         _______ _______ _______ _____ _____    ______ ____
ROOT
ATOM      1  C4  UNL     1     -19.379  84.521 126.662  0.00  0.00    +0.000 A 
ATOM      2  C5  UNL     1     -18.950  83.559 125.732  0.00  0.00    +0.000 A 
ATOM      3  C6  UNL     1     -19.315  82.212 125.875  0.00  0.00    +0.000 A 
ATOM      4  C7  UNL     1     -20.118  81.813 126.958  0.00  0.00    +0.000 A 
ATOM      5  C8  UNL     1     -20.548  82.772 127.888  0.00  0.00    +0.000 A 
ATOM      6  C9  UNL     1     -20.183  84.113 127.742  0.00  0.00    +0.000 A 
ATOM      7  C10 UNL     1     -20.513  80.372 127.117  0.00  0.00    +0.000 C 
ENDROOT
BRANCH   1   9
ATOM      8  C1  UNL     1     -19.648  86.861 127.547  0.00  0.00    +0.000 C 
ATOM      9  C2  UNL     1     -18.976  85.974 126.493  0.00  0.00    +0.000 C 
ATOM     10  C3  UNL     1     -17.451  86.132 126.529  0.00  0.00    +0.000 C 
ENDBRANCH   1   9
BRANCH   3  11
ATOM     11  O1  UNL     1     -18.881  81.268 124.944  0.00  0.00    +0.000 OA
ATOM     12  H14 UNL     1     -19.506  80.886 124.244  0.00  0.00    +0.000 HD
ENDBRANCH   3  11
TORSDOF 2
ENDMDL
MODEL 4
REMARK VINA RESULT:      -4.7      1.406      4.234
REMARK  Name = .\Carvacrol.pdb
REMARK  5 active torsions:
REMARK  status: ('A' for Active; 'I' for Inactive)
REMARK    1  A    between atoms: C1_1  and  C2_2
REMARK    2  A    between atoms: C2_2  and  C3_3
REMARK    3  A    between atoms: C2_2  and  C4_4
REMARK    4  A    between atoms: C6_6  and  O1_11
REMARK    5  A    between atoms: C7_7  and  C10_10
REMARK                            x       y       z     vdW  Elec       q    Type
REMARK                         _______ _______ _______ _____ _____    ______ ____
ROOT
ATOM      1  C4  UNL     1     -19.338  86.176 127.703  0.00  0.00    +0.000 A 
ATOM      2  C5  UNL     1     -19.920  85.073 128.350  0.00  0.00    +0.000 A 
ATOM      3  C6  UNL     1     -19.887  83.799 127.764  0.00  0.00    +0.000 A 
ATOM      4  C7  UNL     1     -19.267  83.617 126.515  0.00  0.00    +0.000 A 
ATOM      5  C8  UNL     1     -18.685  84.717 125.867  0.00  0.00    +0.000 A 
ATOM      6  C9  UNL     1     -18.720  85.984 126.454  0.00  0.00    +0.000 A 
ATOM      7  C10 UNL     1     -19.227  82.255 125.881  0.00  0.00    +0.000 C 
ENDROOT
BRANCH   1   9
ATOM      8  C1  UNL     1     -20.094  88.562 127.448  0.00  0.00    +0.000 C 
ATOM      9  C2  UNL     1     -19.383  87.547 128.351  0.00  0.00    +0.000 C 
ATOM     10  C3  UNL     1     -20.041  87.483 129.735  0.00  0.00    +0.000 C 
ENDBRANCH   1   9
BRANCH   3  11
ATOM     11  O1  UNL     1     -20.470  82.714 128.418  0.00  0.00    +0.000 OA
ATOM     12  H14 UNL     1     -21.424  82.749 128.760  0.00  0.00    +0.000 HD
ENDBRANCH   3  11
TORSDOF 2
ENDMDL
MODEL 5
REMARK VINA RESULT:      -4.6      1.664      2.574
REMARK  Name = .\Carvacrol.pdb
REMARK  5 active torsions:
REMARK  status: ('A' for Active; 'I' for Inactive)
REMARK    1  A    between atoms: C1_1  and  C2_2
REMARK    2  A    between atoms: C2_2  and  C3_3
REMARK    3  A    between atoms: C2_2  and  C4_4
REMARK    4  A    between atoms: C6_6  and  O1_11
REMARK    5  A    between atoms: C7_7  and  C10_10
REMARK                            x       y       z     vdW  Elec       q    Type
REMARK                         _______ _______ _______ _____ _____    ______ ____
ROOT
ATOM      1  C4  UNL     1     -19.302  85.227 127.208  0.00  0.00    +0.000 A 
ATOM      2  C5  UNL     1     -19.257  86.588 126.863  0.00  0.00    +0.000 A 
ATOM      3  C6  UNL     1     -19.584  87.576 127.803  0.00  0.00    +0.000 A 
ATOM      4  C7  UNL     1     -19.962  87.208 129.107  0.00  0.00    +0.000 A 
ATOM      5  C8  UNL     1     -20.007  85.849 129.453  0.00  0.00    +0.000 A 
ATOM      6  C9  UNL     1     -19.680  84.868 128.514  0.00  0.00    +0.000 A 
ATOM      7  C10 UNL     1     -20.314  88.261 130.119  0.00  0.00    +0.000 C 
ENDROOT
BRANCH   1   9
ATOM      8  C1  UNL     1     -20.183  83.372 125.754  0.00  0.00    +0.000 C 
ATOM      9  C2  UNL     1     -18.945  84.171 126.179  0.00  0.00    +0.000 C 
ATOM     10  C3  UNL     1     -18.247  84.795 124.965  0.00  0.00    +0.000 C 
ENDBRANCH   1   9
BRANCH   3  11
ATOM     11  O1  UNL     1     -19.536  88.924 127.446  0.00  0.00    +0.000 OA
ATOM     12  H14 UNL     1     -19.223  89.636 128.096  0.00  0.00    +0.000 HD
ENDBRANCH   3  11
TORSDOF 2
ENDMDL
MODEL 6
REMARK VINA RESULT:      -4.5      1.940      2.654
REMARK  Name = .\Carvacrol.pdb
REMARK  5 active torsions:
REMARK  status: ('A' for Active; 'I' for Inactive)
REMARK    1  A    between atoms: C1_1  and  C2_2
REMARK    2  A    between atoms: C2_2  and  C3_3
REMARK    3  A    between atoms: C2_2  and  C4_4
REMARK    4  A    between atoms: C6_6  and  O1_11
REMARK    5  A    between atoms: C7_7  and  C10_10
REMARK                            x       y       z     vdW  Elec       q    Type
REMARK                         _______ _______ _______ _____ _____    ______ ____
ROOT
ATOM      1  C4  UNL     1     -19.871  82.756 126.508  0.00  0.00    +0.000 A 
ATOM      2  C5  UNL     1     -18.930  83.464 125.740  0.00  0.00    +0.000 A 
ATOM      3  C6  UNL     1     -18.584  84.783 126.069  0.00  0.00    +0.000 A 
ATOM      4  C7  UNL     1     -19.181  85.410 127.177  0.00  0.00    +0.000 A 
ATOM      5  C8  UNL     1     -20.121  84.705 127.945  0.00  0.00    +0.000 A 
ATOM      6  C9  UNL     1     -20.463  83.392 127.614  0.00  0.00    +0.000 A 
ATOM      7  C10 UNL     1     -18.816  86.822 127.535  0.00  0.00    +0.000 C 
ENDROOT
BRANCH   1   9
ATOM      8  C1  UNL     1     -19.005  80.559 125.640  0.00  0.00    +0.000 C 
ATOM      9  C2  UNL     1     -20.234  81.330 126.138  0.00  0.00    +0.000 C 
ATOM     10  C3  UNL     1     -20.901  80.606 127.314  0.00  0.00    +0.000 C 
ENDBRANCH   1   9
BRANCH   3  11
ATOM     11  O1  UNL     1     -17.649  85.473 125.297  0.00  0.00    +0.000 OA
ATOM     12  H14 UNL     1     -17.234  85.060 124.470  0.00  0.00    +0.000 HD
ENDBRANCH   3  11
TORSDOF 2
ENDMDL
MODEL 7
REMARK VINA RESULT:      -4.5      1.869      4.356
REMARK  Name = .\Carvacrol.pdb
REMARK  5 active torsions:
REMARK  status: ('A' for Active; 'I' for Inactive)
REMARK    1  A    between atoms: C1_1  and  C2_2
REMARK    2  A    between atoms: C2_2  and  C3_3
REMARK    3  A    between atoms: C2_2  and  C4_4
REMARK    4  A    between atoms: C6_6  and  O1_11
REMARK    5  A    between atoms: C7_7  and  C10_10
REMARK                            x       y       z     vdW  Elec       q    Type
REMARK                         _______ _______ _______ _____ _____    ______ ____
ROOT
ATOM      1  C4  UNL     1     -19.690  84.608 127.439  0.00  0.00    +0.000 A 
ATOM      2  C5  UNL     1     -20.190  83.470 128.095  0.00  0.00    +0.000 A 
ATOM      3  C6  UNL     1     -20.098  82.203 127.502  0.00  0.00    +0.000 A 
ATOM      4  C7  UNL     1     -19.501  82.061 126.237  0.00  0.00    +0.000 A 
ATOM      5  C8  UNL     1     -19.002  83.195 125.579  0.00  0.00    +0.000 A 
ATOM      6  C9  UNL     1     -19.094  84.456 126.174  0.00  0.00    +0.000 A 
ATOM      7  C10 UNL     1     -19.400  80.706 125.596  0.00  0.00    +0.000 C 
ENDROOT
BRANCH   1   9
ATOM      8  C1  UNL     1     -19.891  85.845 129.620  0.00  0.00    +0.000 C 
ATOM      9  C2  UNL     1     -19.798  85.972 128.095  0.00  0.00    +0.000 C 
ATOM     10  C3  UNL     1     -18.629  86.876 127.685  0.00  0.00    +0.000 C 
ENDBRANCH   1   9
BRANCH   3  11
ATOM     11  O1  UNL     1     -20.600  81.083 128.166  0.00  0.00    +0.000 OA
ATOM     12  H14 UNL     1     -21.094  80.349 127.671  0.00  0.00    +0.000 HD
ENDBRANCH   3  11
TORSDOF 2
ENDMDL
MODEL 8
REMARK VINA RESULT:      -4.3      2.156      4.756
REMARK  Name = .\Carvacrol.pdb
REMARK  5 active torsions:
REMARK  status: ('A' for Active; 'I' for Inactive)
REMARK    1  A    between atoms: C1_1  and  C2_2
REMARK    2  A    between atoms: C2_2  and  C3_3
REMARK    3  A    between atoms: C2_2  and  C4_4
REMARK    4  A    between atoms: C6_6  and  O1_11
REMARK    5  A    between atoms: C7_7  and  C10_10
REMARK                            x       y       z     vdW  Elec       q    Type
REMARK                         _______ _______ _______ _____ _____    ______ ____
ROOT
ATOM      1  C4  UNL     1     -20.017  84.332 128.199  0.00  0.00    +0.000 A 
ATOM      2  C5  UNL     1     -19.922  84.318 126.797  0.00  0.00    +0.000 A 
ATOM      3  C6  UNL     1     -20.342  83.200 126.062  0.00  0.00    +0.000 A 
ATOM      4  C7  UNL     1     -20.863  82.077 126.727  0.00  0.00    +0.000 A 
ATOM      5  C8  UNL     1     -20.958  82.088 128.128  0.00  0.00    +0.000 A 
ATOM      6  C9  UNL     1     -20.540  83.204 128.856  0.00  0.00    +0.000 A 
ATOM      7  C10 UNL     1     -21.314  80.875 125.947  0.00  0.00    +0.000 C 
ENDROOT
BRANCH   1   9
ATOM      8  C1  UNL     1     -19.952  86.846 128.260  0.00  0.00    +0.000 C 
ATOM      9  C2  UNL     1     -19.559  85.550 128.979  0.00  0.00    +0.000 C 
ATOM     10  C3  UNL     1     -20.102  85.526 130.412  0.00  0.00    +0.000 C 
ENDBRANCH   1   9
BRANCH   3  11
ATOM     11  O1  UNL     1     -20.241  83.201 124.670  0.00  0.00    +0.000 OA
ATOM     12  H14 UNL     1     -19.359  83.030 124.201  0.00  0.00    +0.000 HD
ENDBRANCH   3  11
TORSDOF 2
ENDMDL
MODEL 9
REMARK VINA RESULT:      -4.3      2.252      4.388
REMARK  Name = .\Carvacrol.pdb
REMARK  5 active torsions:
REMARK  status: ('A' for Active; 'I' for Inactive)
REMARK    1  A    between atoms: C1_1  and  C2_2
REMARK    2  A    between atoms: C2_2  and  C3_3
REMARK    3  A    between atoms: C2_2  and  C4_4
REMARK    4  A    between atoms: C6_6  and  O1_11
REMARK    5  A    between atoms: C7_7  and  C10_10
REMARK                            x       y       z     vdW  Elec       q    Type
REMARK                         _______ _______ _______ _____ _____    ______ ____
ROOT
ATOM      1  C4  UNL     1     -19.715  85.103 128.407  0.00  0.00    +0.000 A 
ATOM      2  C5  UNL     1     -20.013  83.823 127.909  0.00  0.00    +0.000 A 
ATOM      3  C6  UNL     1     -20.173  82.735 128.780  0.00  0.00    +0.000 A 
ATOM      4  C7  UNL     1     -20.034  82.919 130.167  0.00  0.00    +0.000 A 
ATOM      5  C8  UNL     1     -19.736  84.196 130.666  0.00  0.00    +0.000 A 
ATOM      6  C9  UNL     1     -19.578  85.278 129.796  0.00  0.00    +0.000 A 
ATOM      7  C10 UNL     1     -20.204  81.759 131.105  0.00  0.00    +0.000 C 
ENDROOT
BRANCH   1   9
ATOM      8  C1  UNL     1     -19.046  87.518 128.187  0.00  0.00    +0.000 C 
ATOM      9  C2  UNL     1     -19.545  86.269 127.451  0.00  0.00    +0.000 C 
ATOM     10  C3  UNL     1     -18.612  85.902 126.291  0.00  0.00    +0.000 C 
ENDBRANCH   1   9
BRANCH   3  11
ATOM     11  O1  UNL     1     -20.468  81.470 128.271  0.00  0.00    +0.000 OA
ATOM     12  H14 UNL     1     -20.358  81.255 127.286  0.00  0.00    +0.000 HD
ENDBRANCH   3  11
TORSDOF 2
ENDMDL
