MODEL 1
REMARK VINA RESULT:      -5.5      0.000      0.000
REMARK  Name = .\Carvacrol.pdb
REMARK  5 active torsions:
REMARK  status: ('A' for Active; 'I' for Inactive)
REMARK    1  A    between atoms: C1_1  and  C2_2
REMARK    2  A    between atoms: C2_2  and  C3_3
REMARK    3  A    between atoms: C2_2  and  C4_4
REMARK    4  A    between atoms: C6_6  and  O1_11
REMARK    5  A    between atoms: C7_7  and  C10_10
REMARK                            x       y       z     vdW  Elec       q    Type
REMARK                         _______ _______ _______ _____ _____    ______ ____
ROOT
ATOM      1  C4  UNL     1     -19.503  61.239 -16.803  0.00  0.00    +0.000 A 
ATOM      2  C5  UNL     1     -18.542  61.053 -17.812  0.00  0.00    +0.000 A 
ATOM      3  C6  UNL     1     -17.706  59.927 -17.805  0.00  0.00    +0.000 A 
ATOM      4  C7  UNL     1     -17.823  58.971 -16.781  0.00  0.00    +0.000 A 
ATOM      5  C8  UNL     1     -18.781  59.156 -15.772  0.00  0.00    +0.000 A 
ATOM      6  C9  UNL     1     -19.613  60.278 -15.783  0.00  0.00    +0.000 A 
ATOM      7  C10 UNL     1     -16.930  57.764 -16.766  0.00  0.00    +0.000 C 
ENDROOT
BRANCH   1   9
ATOM      8  C1  UNL     1     -20.027  63.442 -15.707  0.00  0.00    +0.000 C 
ATOM      9  C2  UNL     1     -20.400  62.463 -16.826  0.00  0.00    +0.000 C 
ATOM     10  C3  UNL     1     -20.363  63.150 -18.196  0.00  0.00    +0.000 C 
ENDBRANCH   1   9
BRANCH   3  11
ATOM     11  O1  UNL     1     -16.756  59.756 -18.813  0.00  0.00    +0.000 OA
ATOM     12  H14 UNL     1     -16.378  58.843 -19.038  0.00  0.00    +0.000 HD
ENDBRANCH   3  11
TORSDOF 2
ENDMDL
MODEL 2
REMARK VINA RESULT:      -5.2      1.357      3.856
REMARK  Name = .\Carvacrol.pdb
REMARK  5 active torsions:
REMARK  status: ('A' for Active; 'I' for Inactive)
REMARK    1  A    between atoms: C1_1  and  C2_2
REMARK    2  A    between atoms: C2_2  and  C3_3
REMARK    3  A    between atoms: C2_2  and  C4_4
REMARK    4  A    between atoms: C6_6  and  O1_11
REMARK    5  A    between atoms: C7_7  and  C10_10
REMARK                            x       y       z     vdW  Elec       q    Type
REMARK                         _______ _______ _______ _____ _____    ______ ____
ROOT
ATOM      1  C4  UNL     1     -19.527  61.290 -16.909  0.00  0.00    +0.000 A 
ATOM      2  C5  UNL     1     -18.422  61.132 -17.763  0.00  0.00    +0.000 A 
ATOM      3  C6  UNL     1     -18.313  61.885 -18.941  0.00  0.00    +0.000 A 
ATOM      4  C7  UNL     1     -19.317  62.810 -19.278  0.00  0.00    +0.000 A 
ATOM      5  C8  UNL     1     -20.421  62.969 -18.427  0.00  0.00    +0.000 A 
ATOM      6  C9  UNL     1     -20.526  62.217 -17.254  0.00  0.00    +0.000 A 
ATOM      7  C10 UNL     1     -19.207  63.620 -20.538  0.00  0.00    +0.000 C 
ENDROOT
BRANCH   1   9
ATOM      8  C1  UNL     1     -18.852  59.150 -15.770  0.00  0.00    +0.000 C 
ATOM      9  C2  UNL     1     -19.628  60.466 -15.639  0.00  0.00    +0.000 C 
ATOM     10  C3  UNL     1     -19.155  61.268 -14.421  0.00  0.00    +0.000 C 
ENDBRANCH   1   9
BRANCH   3  11
ATOM     11  O1  UNL     1     -17.210  61.717 -19.779  0.00  0.00    +0.000 OA
ATOM     12  H14 UNL     1     -16.324  61.371 -19.428  0.00  0.00    +0.000 HD
ENDBRANCH   3  11
TORSDOF 2
ENDMDL
MODEL 3
REMARK VINA RESULT:      -5.1      1.560      2.136
REMARK  Name = .\Carvacrol.pdb
REMARK  5 active torsions:
REMARK  status: ('A' for Active; 'I' for Inactive)
REMARK    1  A    between atoms: C1_1  and  C2_2
REMARK    2  A    between atoms: C2_2  and  C3_3
REMARK    3  A    between atoms: C2_2  and  C4_4
REMARK    4  A    between atoms: C6_6  and  O1_11
REMARK    5  A    between atoms: C7_7  and  C10_10
REMARK                            x       y       z     vdW  Elec       q    Type
REMARK                         _______ _______ _______ _____ _____    ______ ____
ROOT
ATOM      1  C4  UNL     1     -19.758  61.766 -17.004  0.00  0.00    +0.000 A 
ATOM      2  C5  UNL     1     -19.964  60.803 -16.001  0.00  0.00    +0.000 A 
ATOM      3  C6  UNL     1     -19.158  59.657 -15.933  0.00  0.00    +0.000 A 
ATOM      4  C7  UNL     1     -18.133  59.462 -16.874  0.00  0.00    +0.000 A 
ATOM      5  C8  UNL     1     -17.925  60.423 -17.877  0.00  0.00    +0.000 A 
ATOM      6  C9  UNL     1     -18.729  61.563 -17.941  0.00  0.00    +0.000 A 
ATOM      7  C10 UNL     1     -17.266  58.237 -16.808  0.00  0.00    +0.000 C 
ENDROOT
BRANCH   1   9
ATOM      8  C1  UNL     1     -20.258  64.003 -15.967  0.00  0.00    +0.000 C 
ATOM      9  C2  UNL     1     -20.638  63.000 -17.063  0.00  0.00    +0.000 C 
ATOM     10  C3  UNL     1     -20.586  63.652 -18.450  0.00  0.00    +0.000 C 
ENDBRANCH   1   9
BRANCH   3  11
ATOM     11  O1  UNL     1     -19.375  58.709 -14.932  0.00  0.00    +0.000 OA
ATOM     12  H14 UNL     1     -20.092  58.836 -14.226  0.00  0.00    +0.000 HD
ENDBRANCH   3  11
TORSDOF 2
ENDMDL
MODEL 4
REMARK VINA RESULT:      -5.0      2.115      4.554
REMARK  Name = .\Carvacrol.pdb
REMARK  5 active torsions:
REMARK  status: ('A' for Active; 'I' for Inactive)
REMARK    1  A    between atoms: C1_1  and  C2_2
REMARK    2  A    between atoms: C2_2  and  C3_3
REMARK    3  A    between atoms: C2_2  and  C4_4
REMARK    4  A    between atoms: C6_6  and  O1_11
REMARK    5  A    between atoms: C7_7  and  C10_10
REMARK                            x       y       z     vdW  Elec       q    Type
REMARK                         _______ _______ _______ _____ _____    ______ ____
ROOT
ATOM      1  C4  UNL     1     -18.589  60.891 -17.371  0.00  0.00    +0.000 A 
ATOM      2  C5  UNL     1     -19.670  61.726 -17.042  0.00  0.00    +0.000 A 
ATOM      3  C6  UNL     1     -20.127  62.696 -17.945  0.00  0.00    +0.000 A 
ATOM      4  C7  UNL     1     -19.501  62.842 -19.195  0.00  0.00    +0.000 A 
ATOM      5  C8  UNL     1     -18.421  62.010 -19.526  0.00  0.00    +0.000 A 
ATOM      6  C9  UNL     1     -17.969  61.044 -18.624  0.00  0.00    +0.000 A 
ATOM      7  C10 UNL     1     -19.985  63.879 -20.168  0.00  0.00    +0.000 C 
ENDROOT
BRANCH   1   9
ATOM      8  C1  UNL     1     -19.270  59.304 -15.542  0.00  0.00    +0.000 C 
ATOM      9  C2  UNL     1     -18.107  59.846 -16.381  0.00  0.00    +0.000 C 
ATOM     10  C3  UNL     1     -17.363  58.711 -17.094  0.00  0.00    +0.000 C 
ENDBRANCH   1   9
BRANCH   3  11
ATOM     11  O1  UNL     1     -21.202  63.518 -17.604  0.00  0.00    +0.000 OA
ATOM     12  H14 UNL     1     -21.851  63.265 -16.867  0.00  0.00    +0.000 HD
ENDBRANCH   3  11
TORSDOF 2
ENDMDL
MODEL 5
REMARK VINA RESULT:      -4.9      1.293      2.350
REMARK  Name = .\Carvacrol.pdb
REMARK  5 active torsions:
REMARK  status: ('A' for Active; 'I' for Inactive)
REMARK    1  A    between atoms: C1_1  and  C2_2
REMARK    2  A    between atoms: C2_2  and  C3_3
REMARK    3  A    between atoms: C2_2  and  C4_4
REMARK    4  A    between atoms: C6_6  and  O1_11
REMARK    5  A    between atoms: C7_7  and  C10_10
REMARK                            x       y       z     vdW  Elec       q    Type
REMARK                         _______ _______ _______ _____ _____    ______ ____
ROOT
ATOM      1  C4  UNL     1     -19.270  62.466 -18.638  0.00  0.00    +0.000 A 
ATOM      2  C5  UNL     1     -18.235  61.671 -19.159  0.00  0.00    +0.000 A 
ATOM      3  C6  UNL     1     -17.765  60.554 -18.452  0.00  0.00    +0.000 A 
ATOM      4  C7  UNL     1     -18.331  60.220 -17.209  0.00  0.00    +0.000 A 
ATOM      5  C8  UNL     1     -19.365  61.013 -16.687  0.00  0.00    +0.000 A 
ATOM      6  C9  UNL     1     -19.830  62.124 -17.394  0.00  0.00    +0.000 A 
ATOM      7  C10 UNL     1     -17.833  59.026 -16.447  0.00  0.00    +0.000 C 
ENDROOT
BRANCH   1   9
ATOM      8  C1  UNL     1     -19.974  63.326 -20.895  0.00  0.00    +0.000 C 
ATOM      9  C2  UNL     1     -19.766  63.671 -19.415  0.00  0.00    +0.000 C 
ATOM     10  C3  UNL     1     -21.048  64.240 -18.795  0.00  0.00    +0.000 C 
ENDBRANCH   1   9
BRANCH   3  11
ATOM     11  O1  UNL     1     -16.736  59.775 -18.982  0.00  0.00    +0.000 OA
ATOM     12  H14 UNL     1     -16.682  59.569 -19.973  0.00  0.00    +0.000 HD
ENDBRANCH   3  11
TORSDOF 2
ENDMDL
MODEL 6
REMARK VINA RESULT:      -4.8      1.488      4.168
REMARK  Name = .\Carvacrol.pdb
REMARK  5 active torsions:
REMARK  status: ('A' for Active; 'I' for Inactive)
REMARK    1  A    between atoms: C1_1  and  C2_2
REMARK    2  A    between atoms: C2_2  and  C3_3
REMARK    3  A    between atoms: C2_2  and  C4_4
REMARK    4  A    between atoms: C6_6  and  O1_11
REMARK    5  A    between atoms: C7_7  and  C10_10
REMARK                            x       y       z     vdW  Elec       q    Type
REMARK                         _______ _______ _______ _____ _____    ______ ____
ROOT
ATOM      1  C4  UNL     1     -18.794  61.013 -17.091  0.00  0.00    +0.000 A 
ATOM      2  C5  UNL     1     -18.403  61.323 -18.405  0.00  0.00    +0.000 A 
ATOM      3  C6  UNL     1     -19.055  62.332 -19.127  0.00  0.00    +0.000 A 
ATOM      4  C7  UNL     1     -20.114  63.046 -18.538  0.00  0.00    +0.000 A 
ATOM      5  C8  UNL     1     -20.507  62.738 -17.226  0.00  0.00    +0.000 A 
ATOM      6  C9  UNL     1     -19.854  61.732 -16.510  0.00  0.00    +0.000 A 
ATOM      7  C10 UNL     1     -20.817  64.128 -19.306  0.00  0.00    +0.000 C 
ENDROOT
BRANCH   1   9
ATOM      8  C1  UNL     1     -19.027  59.217 -15.344  0.00  0.00    +0.000 C 
ATOM      9  C2  UNL     1     -18.077  59.918 -16.324  0.00  0.00    +0.000 C 
ATOM     10  C3  UNL     1     -17.425  58.910 -17.278  0.00  0.00    +0.000 C 
ENDBRANCH   1   9
BRANCH   3  11
ATOM     11  O1  UNL     1     -18.656  62.628 -20.431  0.00  0.00    +0.000 OA
ATOM     12  H14 UNL     1     -18.974  63.464 -20.908  0.00  0.00    +0.000 HD
ENDBRANCH   3  11
TORSDOF 2
ENDMDL
MODEL 7
REMARK VINA RESULT:      -4.5      2.817      4.190
REMARK  Name = .\Carvacrol.pdb
REMARK  5 active torsions:
REMARK  status: ('A' for Active; 'I' for Inactive)
REMARK    1  A    between atoms: C1_1  and  C2_2
REMARK    2  A    between atoms: C2_2  and  C3_3
REMARK    3  A    between atoms: C2_2  and  C4_4
REMARK    4  A    between atoms: C6_6  and  O1_11
REMARK    5  A    between atoms: C7_7  and  C10_10
REMARK                            x       y       z     vdW  Elec       q    Type
REMARK                         _______ _______ _______ _____ _____    ______ ____
ROOT
ATOM      1  C4  UNL     1     -19.182  62.825 -15.994  0.00  0.00    +0.000 A 
ATOM      2  C5  UNL     1     -18.200  63.422 -16.803  0.00  0.00    +0.000 A 
ATOM      3  C6  UNL     1     -17.081  64.044 -16.230  0.00  0.00    +0.000 A 
ATOM      4  C7  UNL     1     -16.935  64.077 -14.833  0.00  0.00    +0.000 A 
ATOM      5  C8  UNL     1     -17.914  63.482 -14.023  0.00  0.00    +0.000 A 
ATOM      6  C9  UNL     1     -19.027  62.862 -14.597  0.00  0.00    +0.000 A 
ATOM      7  C10 UNL     1     -15.740  64.742 -14.212  0.00  0.00    +0.000 C 
ENDROOT
BRANCH   1   9
ATOM      8  C1  UNL     1     -20.336  62.266 -18.159  0.00  0.00    +0.000 C 
ATOM      9  C2  UNL     1     -20.386  62.156 -16.630  0.00  0.00    +0.000 C 
ATOM     10  C3  UNL     1     -20.505  60.693 -16.185  0.00  0.00    +0.000 C 
ENDBRANCH   1   9
BRANCH   3  11
ATOM     11  O1  UNL     1     -16.115  64.633 -17.047  0.00  0.00    +0.000 OA
ATOM     12  H14 UNL     1     -15.679  64.123 -17.807  0.00  0.00    +0.000 HD
ENDBRANCH   3  11
TORSDOF 2
ENDMDL
MODEL 8
REMARK VINA RESULT:      -4.4      2.257      3.294
REMARK  Name = .\Carvacrol.pdb
REMARK  5 active torsions:
REMARK  status: ('A' for Active; 'I' for Inactive)
REMARK    1  A    between atoms: C1_1  and  C2_2
REMARK    2  A    between atoms: C2_2  and  C3_3
REMARK    3  A    between atoms: C2_2  and  C4_4
REMARK    4  A    between atoms: C6_6  and  O1_11
REMARK    5  A    between atoms: C7_7  and  C10_10
REMARK                            x       y       z     vdW  Elec       q    Type
REMARK                         _______ _______ _______ _____ _____    ______ ____
ROOT
ATOM      1  C4  UNL     1     -19.299  62.324 -18.743  0.00  0.00    +0.000 A 
ATOM      2  C5  UNL     1     -20.405  62.155 -17.892  0.00  0.00    +0.000 A 
ATOM      3  C6  UNL     1     -20.381  61.196 -16.869  0.00  0.00    +0.000 A 
ATOM      4  C7  UNL     1     -19.243  60.391 -16.687  0.00  0.00    +0.000 A 
ATOM      5  C8  UNL     1     -18.138  60.557 -17.537  0.00  0.00    +0.000 A 
ATOM      6  C9  UNL     1     -18.165  61.514 -18.554  0.00  0.00    +0.000 A 
ATOM      7  C10 UNL     1     -19.210  59.361 -15.594  0.00  0.00    +0.000 C 
ENDROOT
BRANCH   1   9
ATOM      8  C1  UNL     1     -20.764  63.906 -20.040  0.00  0.00    +0.000 C 
ATOM      9  C2  UNL     1     -19.342  63.367 -19.844  0.00  0.00    +0.000 C 
ATOM     10  C3  UNL     1     -18.353  64.505 -19.567  0.00  0.00    +0.000 C 
ENDBRANCH   1   9
BRANCH   3  11
ATOM     11  O1  UNL     1     -21.486  61.039 -16.032  0.00  0.00    +0.000 OA
ATOM     12  H14 UNL     1     -21.845  60.122 -15.791  0.00  0.00    +0.000 HD
ENDBRANCH   3  11
TORSDOF 2
ENDMDL
MODEL 9
REMARK VINA RESULT:      -4.4      1.776      4.304
REMARK  Name = .\Carvacrol.pdb
REMARK  5 active torsions:
REMARK  status: ('A' for Active; 'I' for Inactive)
REMARK    1  A    between atoms: C1_1  and  C2_2
REMARK    2  A    between atoms: C2_2  and  C3_3
REMARK    3  A    between atoms: C2_2  and  C4_4
REMARK    4  A    between atoms: C6_6  and  O1_11
REMARK    5  A    between atoms: C7_7  and  C10_10
REMARK                            x       y       z     vdW  Elec       q    Type
REMARK                         _______ _______ _______ _____ _____    ______ ____
ROOT
ATOM      1  C4  UNL     1     -18.376  60.346 -16.865  0.00  0.00    +0.000 A 
ATOM      2  C5  UNL     1     -18.668  61.431 -17.709  0.00  0.00    +0.000 A 
ATOM      3  C6  UNL     1     -19.222  62.611 -17.192  0.00  0.00    +0.000 A 
ATOM      4  C7  UNL     1     -19.492  62.717 -15.816  0.00  0.00    +0.000 A 
ATOM      5  C8  UNL     1     -19.201  61.634 -14.972  0.00  0.00    +0.000 A 
ATOM      6  C9  UNL     1     -18.648  60.460 -15.490  0.00  0.00    +0.000 A 
ATOM      7  C10 UNL     1     -20.086  63.977 -15.256  0.00  0.00    +0.000 C 
ENDROOT
BRANCH   1   9
ATOM      8  C1  UNL     1     -17.161  59.333 -18.821  0.00  0.00    +0.000 C 
ATOM      9  C2  UNL     1     -17.776  59.076 -17.440  0.00  0.00    +0.000 C 
ATOM     10  C3  UNL     1     -16.747  58.466 -16.481  0.00  0.00    +0.000 C 
ENDBRANCH   1   9
BRANCH   3  11
ATOM     11  O1  UNL     1     -19.508  63.679 -18.043  0.00  0.00    +0.000 OA
ATOM     12  H14 UNL     1     -19.099  63.746 -18.968  0.00  0.00    +0.000 HD
ENDBRANCH   3  11
TORSDOF 2
ENDMDL
