MODEL 1
REMARK VINA RESULT:      -4.2      0.000      0.000
REMARK  Name = .\Carvone.pdb
REMARK  3 active torsions:
REMARK  status: ('A' for Active; 'I' for Inactive)
REMARK    1  A    between atoms: C1_1  and  C2_2
REMARK    2  A    between atoms: C7_8  and  C8_9
REMARK    3  A    between atoms: C7_8  and  C9_10
REMARK                            x       y       z     vdW  Elec       q    Type
REMARK                         _______ _______ _______ _____ _____    ______ ____
ROOT
ATOM      1  C1  UNL     1      -8.591  99.319 125.237  0.00  0.00    +0.000 C 
ATOM      2  C2  UNL     1      -9.030  97.914 124.904  0.00  0.00    +0.000 C 
ATOM      3  C3  UNL     1      -8.733  96.949 125.789  0.00  0.00    +0.000 C 
ATOM      4  C4  UNL     1      -9.118  95.557 125.554  0.00  0.00    +0.000 C 
ATOM      5  O1  UNL     1      -8.829  94.669 126.399  0.00  0.00    +0.000 OA
ATOM      6  C5  UNL     1      -9.839  95.202 124.335  0.00  0.00    +0.000 C 
ATOM      7  C6  UNL     1     -10.149  96.137 123.437  0.00  0.00    +0.000 C 
ATOM      8  C7  UNL     1      -9.789  97.609 123.597  0.00  0.00    +0.000 C 
ATOM      9  C8  UNL     1      -8.914  98.001 122.390  0.00  0.00    +0.000 C 
ATOM     10  C9  UNL     1     -11.106  98.409 123.568  0.00  0.00    +0.000 C 
ENDROOT
TORSDOF 0
ENDMDL
MODEL 2
REMARK VINA RESULT:      -4.0      1.428      2.898
REMARK  Name = .\Carvone.pdb
REMARK  3 active torsions:
REMARK  status: ('A' for Active; 'I' for Inactive)
REMARK    1  A    between atoms: C1_1  and  C2_2
REMARK    2  A    between atoms: C7_8  and  C8_9
REMARK    3  A    between atoms: C7_8  and  C9_10
REMARK                            x       y       z     vdW  Elec       q    Type
REMARK                         _______ _______ _______ _____ _____    ______ ____
ROOT
ATOM      1  C1  UNL     1      -9.098  95.758 123.342  0.00  0.00    +0.000 C 
ATOM      2  C2  UNL     1      -8.965  96.136 124.797  0.00  0.00    +0.000 C 
ATOM      3  C3  UNL     1      -9.087  95.153 125.702  0.00  0.00    +0.000 C 
ATOM      4  C4  UNL     1      -8.974  95.422 127.137  0.00  0.00    +0.000 C 
ATOM      5  O1  UNL     1      -9.092  94.483 127.968  0.00  0.00    +0.000 OA
ATOM      6  C5  UNL     1      -8.724  96.784 127.600  0.00  0.00    +0.000 C 
ATOM      7  C6  UNL     1      -8.597  97.782 126.725  0.00  0.00    +0.000 C 
ATOM      8  C7  UNL     1      -8.700  97.596 125.216  0.00  0.00    +0.000 C 
ATOM      9  C8  UNL     1      -9.854  98.491 124.722  0.00  0.00    +0.000 C 
ATOM     10  C9  UNL     1      -7.370  98.074 124.603  0.00  0.00    +0.000 C 
ENDROOT
TORSDOF 0
ENDMDL
MODEL 3
REMARK VINA RESULT:      -3.9      1.555      2.065
REMARK  Name = .\Carvone.pdb
REMARK  3 active torsions:
REMARK  status: ('A' for Active; 'I' for Inactive)
REMARK    1  A    between atoms: C1_1  and  C2_2
REMARK    2  A    between atoms: C7_8  and  C8_9
REMARK    3  A    between atoms: C7_8  and  C9_10
REMARK                            x       y       z     vdW  Elec       q    Type
REMARK                         _______ _______ _______ _____ _____    ______ ____
ROOT
ATOM      1  C1  UNL     1      -8.562  99.180 127.494  0.00  0.00    +0.000 C 
ATOM      2  C2  UNL     1      -8.646  97.813 126.859  0.00  0.00    +0.000 C 
ATOM      3  C3  UNL     1      -8.849  96.766 127.675  0.00  0.00    +0.000 C 
ATOM      4  C4  UNL     1      -8.945  95.403 127.152  0.00  0.00    +0.000 C 
ATOM      5  O1  UNL     1      -9.136  94.436 127.936  0.00  0.00    +0.000 OA
ATOM      6  C5  UNL     1      -8.818  95.168 125.717  0.00  0.00    +0.000 C 
ATOM      7  C6  UNL     1      -8.617  96.186 124.881  0.00  0.00    +0.000 C 
ATOM      8  C7  UNL     1      -8.504  97.637 125.335  0.00  0.00    +0.000 C 
ATOM      9  C8  UNL     1      -7.123  98.152 124.884  0.00  0.00    +0.000 C 
ATOM     10  C9  UNL     1      -9.615  98.429 124.619  0.00  0.00    +0.000 C 
ENDROOT
TORSDOF 0
ENDMDL
MODEL 4
REMARK VINA RESULT:      -3.9      1.208      2.641
REMARK  Name = .\Carvone.pdb
REMARK  3 active torsions:
REMARK  status: ('A' for Active; 'I' for Inactive)
REMARK    1  A    between atoms: C1_1  and  C2_2
REMARK    2  A    between atoms: C7_8  and  C8_9
REMARK    3  A    between atoms: C7_8  and  C9_10
REMARK                            x       y       z     vdW  Elec       q    Type
REMARK                         _______ _______ _______ _____ _____    ______ ____
ROOT
ATOM      1  C1  UNL     1      -8.782  98.082 122.312  0.00  0.00    +0.000 C 
ATOM      2  C2  UNL     1      -8.800  97.274 123.587  0.00  0.00    +0.000 C 
ATOM      3  C3  UNL     1      -9.101  95.970 123.485  0.00  0.00    +0.000 C 
ATOM      4  C4  UNL     1      -9.144  95.105 124.666  0.00  0.00    +0.000 C 
ATOM      5  O1  UNL     1      -9.428  93.884 124.546  0.00  0.00    +0.000 OA
ATOM      6  C5  UNL     1      -8.855  95.665 125.983  0.00  0.00    +0.000 C 
ATOM      7  C6  UNL     1      -8.552  96.956 126.117  0.00  0.00    +0.000 C 
ATOM      8  C7  UNL     1      -8.485  97.930 124.946  0.00  0.00    +0.000 C 
ATOM      9  C8  UNL     1      -9.503  99.053 125.225  0.00  0.00    +0.000 C 
ATOM     10  C9  UNL     1      -7.059  98.514 124.917  0.00  0.00    +0.000 C 
ENDROOT
TORSDOF 0
ENDMDL
MODEL 5
REMARK VINA RESULT:      -3.8      1.534      2.936
REMARK  Name = .\Carvone.pdb
REMARK  3 active torsions:
REMARK  status: ('A' for Active; 'I' for Inactive)
REMARK    1  A    between atoms: C1_1  and  C2_2
REMARK    2  A    between atoms: C7_8  and  C8_9
REMARK    3  A    between atoms: C7_8  and  C9_10
REMARK                            x       y       z     vdW  Elec       q    Type
REMARK                         _______ _______ _______ _____ _____    ______ ____
ROOT
ATOM      1  C1  UNL     1      -9.040  95.162 124.284  0.00  0.00    +0.000 C 
ATOM      2  C2  UNL     1      -9.109  96.563 124.842  0.00  0.00    +0.000 C 
ATOM      3  C3  UNL     1      -8.683  96.745 126.102  0.00  0.00    +0.000 C 
ATOM      4  C4  UNL     1      -8.711  98.067 126.730  0.00  0.00    +0.000 C 
ATOM      5  O1  UNL     1      -8.306  98.215 127.913  0.00  0.00    +0.000 OA
ATOM      6  C5  UNL     1      -9.210  99.215 125.977  0.00  0.00    +0.000 C 
ATOM      7  C6  UNL     1      -9.639  99.066 124.724  0.00  0.00    +0.000 C 
ATOM      8  C7  UNL     1      -9.648  97.729 123.991  0.00  0.00    +0.000 C 
ATOM      9  C8  UNL     1     -11.106  97.439 123.584  0.00  0.00    +0.000 C 
ATOM     10  C9  UNL     1      -8.776  97.893 122.730  0.00  0.00    +0.000 C 
ENDROOT
TORSDOF 0
ENDMDL
MODEL 6
REMARK VINA RESULT:      -3.8      1.210      1.712
REMARK  Name = .\Carvone.pdb
REMARK  3 active torsions:
REMARK  status: ('A' for Active; 'I' for Inactive)
REMARK    1  A    between atoms: C1_1  and  C2_2
REMARK    2  A    between atoms: C7_8  and  C8_9
REMARK    3  A    between atoms: C7_8  and  C9_10
REMARK                            x       y       z     vdW  Elec       q    Type
REMARK                         _______ _______ _______ _____ _____    ______ ____
ROOT
ATOM      1  C1  UNL     1      -8.351  98.275 127.273  0.00  0.00    +0.000 C 
ATOM      2  C2  UNL     1      -8.603  97.538 125.980  0.00  0.00    +0.000 C 
ATOM      3  C3  UNL     1      -8.755  96.206 126.050  0.00  0.00    +0.000 C 
ATOM      4  C4  UNL     1      -9.003  95.406 124.849  0.00  0.00    +0.000 C 
ATOM      5  O1  UNL     1      -9.143  94.157 124.939  0.00  0.00    +0.000 OA
ATOM      6  C5  UNL     1      -9.087  96.061 123.547  0.00  0.00    +0.000 C 
ATOM      7  C6  UNL     1      -8.941  97.382 123.445  0.00  0.00    +0.000 C 
ATOM      8  C7  UNL     1      -8.680  98.294 124.639  0.00  0.00    +0.000 C 
ATOM      9  C8  UNL     1      -7.345  99.019 124.378  0.00  0.00    +0.000 C 
ATOM     10  C9  UNL     1      -9.829  99.320 124.691  0.00  0.00    +0.000 C 
ENDROOT
TORSDOF 0
ENDMDL
MODEL 7
REMARK VINA RESULT:      -3.6      2.079      3.571
REMARK  Name = .\Carvone.pdb
REMARK  3 active torsions:
REMARK  status: ('A' for Active; 'I' for Inactive)
REMARK    1  A    between atoms: C1_1  and  C2_2
REMARK    2  A    between atoms: C7_8  and  C8_9
REMARK    3  A    between atoms: C7_8  and  C9_10
REMARK                            x       y       z     vdW  Elec       q    Type
REMARK                         _______ _______ _______ _____ _____    ______ ____
ROOT
ATOM      1  C1  UNL     1      -8.898  95.053 125.426  0.00  0.00    +0.000 C 
ATOM      2  C2  UNL     1      -9.322  96.416 124.936  0.00  0.00    +0.000 C 
ATOM      3  C3  UNL     1     -10.375  96.472 124.106  0.00  0.00    +0.000 C 
ATOM      4  C4  UNL     1     -10.860  97.749 123.579  0.00  0.00    +0.000 C 
ATOM      5  O1  UNL     1     -11.851  97.777 122.801  0.00  0.00    +0.000 OA
ATOM      6  C5  UNL     1     -10.191  98.989 123.958  0.00  0.00    +0.000 C 
ATOM      7  C6  UNL     1      -9.142  98.967 124.781  0.00  0.00    +0.000 C 
ATOM      8  C7  UNL     1      -8.569  97.686 125.378  0.00  0.00    +0.000 C 
ATOM      9  C8  UNL     1      -7.096  97.593 124.932  0.00  0.00    +0.000 C 
ATOM     10  C9  UNL     1      -8.643  97.822 126.911  0.00  0.00    +0.000 C 
ENDROOT
TORSDOF 0
ENDMDL
MODEL 8
REMARK VINA RESULT:      -3.3      1.697      2.625
REMARK  Name = .\Carvone.pdb
REMARK  3 active torsions:
REMARK  status: ('A' for Active; 'I' for Inactive)
REMARK    1  A    between atoms: C1_1  and  C2_2
REMARK    2  A    between atoms: C7_8  and  C8_9
REMARK    3  A    between atoms: C7_8  and  C9_10
REMARK                            x       y       z     vdW  Elec       q    Type
REMARK                         _______ _______ _______ _____ _____    ______ ____
ROOT
ATOM      1  C1  UNL     1      -8.923  98.288 123.455  0.00  0.00    +0.000 C 
ATOM      2  C2  UNL     1      -8.969  97.510 124.747  0.00  0.00    +0.000 C 
ATOM      3  C3  UNL     1      -8.708  98.182 125.880  0.00  0.00    +0.000 C 
ATOM      4  C4  UNL     1      -8.729  97.513 127.182  0.00  0.00    +0.000 C 
ATOM      5  O1  UNL     1      -8.481  98.164 128.231  0.00  0.00    +0.000 OA
ATOM      6  C5  UNL     1      -9.038  96.088 127.258  0.00  0.00    +0.000 C 
ATOM      7  C6  UNL     1      -9.303  95.394 126.152  0.00  0.00    +0.000 C 
ATOM      8  C7  UNL     1      -9.304  96.006 124.755  0.00  0.00    +0.000 C 
ATOM      9  C8  UNL     1      -8.258  95.241 123.920  0.00  0.00    +0.000 C 
ATOM     10  C9  UNL     1     -10.708  95.787 124.160  0.00  0.00    +0.000 C 
ENDROOT
TORSDOF 0
ENDMDL
MODEL 9
REMARK VINA RESULT:      -3.3      1.769      2.580
REMARK  Name = .\Carvone.pdb
REMARK  3 active torsions:
REMARK  status: ('A' for Active; 'I' for Inactive)
REMARK    1  A    between atoms: C1_1  and  C2_2
REMARK    2  A    between atoms: C7_8  and  C8_9
REMARK    3  A    between atoms: C7_8  and  C9_10
REMARK                            x       y       z     vdW  Elec       q    Type
REMARK                         _______ _______ _______ _____ _____    ______ ____
ROOT
ATOM      1  C1  UNL     1     -11.261  99.379 124.016  0.00  0.00    +0.000 C 
ATOM      2  C2  UNL     1     -10.048  98.662 124.556  0.00  0.00    +0.000 C 
ATOM      3  C3  UNL     1      -9.521  99.120 125.703  0.00  0.00    +0.000 C 
ATOM      4  C4  UNL     1      -8.345  98.490 126.304  0.00  0.00    +0.000 C 
ATOM      5  O1  UNL     1      -7.868  98.937 127.380  0.00  0.00    +0.000 OA
ATOM      6  C5  UNL     1      -7.726  97.340 125.650  0.00  0.00    +0.000 C 
ATOM      7  C6  UNL     1      -8.226  96.861 124.511  0.00  0.00    +0.000 C 
ATOM      8  C7  UNL     1      -9.446  97.453 123.813  0.00  0.00    +0.000 C 
ATOM      9  C8  UNL     1      -9.002  97.884 122.402  0.00  0.00    +0.000 C 
ATOM     10  C9  UNL     1     -10.501  96.335 123.709  0.00  0.00    +0.000 C 
ENDROOT
TORSDOF 0
ENDMDL
