MODEL 1
REMARK VINA RESULT:      -5.0      0.000      0.000
REMARK  Name = .\Carvacrol.pdb
REMARK  5 active torsions:
REMARK  status: ('A' for Active; 'I' for Inactive)
REMARK    1  A    between atoms: C1_1  and  C2_2
REMARK    2  A    between atoms: C2_2  and  C3_3
REMARK    3  A    between atoms: C2_2  and  C4_4
REMARK    4  A    between atoms: C6_6  and  O1_11
REMARK    5  A    between atoms: C7_7  and  C10_10
REMARK                            x       y       z     vdW  Elec       q    Type
REMARK                         _______ _______ _______ _____ _____    ______ ____
ROOT
ATOM      1  C4  UNL     1      -8.948  76.847  32.421  0.00  0.00    +0.000 A 
ATOM      2  C5  UNL     1     -10.214  77.219  32.905  0.00  0.00    +0.000 A 
ATOM      3  C6  UNL     1     -10.439  77.367  34.282  0.00  0.00    +0.000 A 
ATOM      4  C7  UNL     1      -9.393  77.140  35.193  0.00  0.00    +0.000 A 
ATOM      5  C8  UNL     1      -8.128  76.768  34.712  0.00  0.00    +0.000 A 
ATOM      6  C9  UNL     1      -7.907  76.623  33.340  0.00  0.00    +0.000 A 
ATOM      7  C10 UNL     1      -9.627  77.295  36.669  0.00  0.00    +0.000 C 
ENDROOT
BRANCH   1   9
ATOM      8  C1  UNL     1      -7.414  75.945  30.643  0.00  0.00    +0.000 C 
ATOM      9  C2  UNL     1      -8.722  76.693  30.929  0.00  0.00    +0.000 C 
ATOM     10  C3  UNL     1      -9.913  75.999  30.257  0.00  0.00    +0.000 C 
ENDBRANCH   1   9
BRANCH   3  11
ATOM     11  O1  UNL     1     -11.701  77.736  34.748  0.00  0.00    +0.000 OA
ATOM     12  H14 UNL     1     -12.549  77.438  34.279  0.00  0.00    +0.000 HD
ENDBRANCH   3  11
TORSDOF 2
ENDMDL
MODEL 2
REMARK VINA RESULT:      -4.9      1.503      3.962
REMARK  Name = .\Carvacrol.pdb
REMARK  5 active torsions:
REMARK  status: ('A' for Active; 'I' for Inactive)
REMARK    1  A    between atoms: C1_1  and  C2_2
REMARK    2  A    between atoms: C2_2  and  C3_3
REMARK    3  A    between atoms: C2_2  and  C4_4
REMARK    4  A    between atoms: C6_6  and  O1_11
REMARK    5  A    between atoms: C7_7  and  C10_10
REMARK                            x       y       z     vdW  Elec       q    Type
REMARK                         _______ _______ _______ _____ _____    ______ ____
ROOT
ATOM      1  C4  UNL     1      -9.146  76.765  33.263  0.00  0.00    +0.000 A 
ATOM      2  C5  UNL     1     -10.423  76.298  33.617  0.00  0.00    +0.000 A 
ATOM      3  C6  UNL     1     -11.345  75.917  32.631  0.00  0.00    +0.000 A 
ATOM      4  C7  UNL     1     -10.995  76.002  31.272  0.00  0.00    +0.000 A 
ATOM      5  C8  UNL     1      -9.721  76.469  30.916  0.00  0.00    +0.000 A 
ATOM      6  C9  UNL     1      -8.805  76.846  31.901  0.00  0.00    +0.000 A 
ATOM      7  C10 UNL     1     -11.978  75.596  30.211  0.00  0.00    +0.000 C 
ENDROOT
BRANCH   1   9
ATOM      8  C1  UNL     1      -8.779  77.030  35.738  0.00  0.00    +0.000 C 
ATOM      9  C2  UNL     1      -8.161  77.173  34.343  0.00  0.00    +0.000 C 
ATOM     10  C3  UNL     1      -6.856  76.374  34.232  0.00  0.00    +0.000 C 
ENDBRANCH   1   9
BRANCH   3  11
ATOM     11  O1  UNL     1     -12.609  75.456  32.999  0.00  0.00    +0.000 OA
ATOM     12  H14 UNL     1     -13.456  75.899  32.660  0.00  0.00    +0.000 HD
ENDBRANCH   3  11
TORSDOF 2
ENDMDL
MODEL 3
REMARK VINA RESULT:      -4.9      0.839      1.444
REMARK  Name = .\Carvacrol.pdb
REMARK  5 active torsions:
REMARK  status: ('A' for Active; 'I' for Inactive)
REMARK    1  A    between atoms: C1_1  and  C2_2
REMARK    2  A    between atoms: C2_2  and  C3_3
REMARK    3  A    between atoms: C2_2  and  C4_4
REMARK    4  A    between atoms: C6_6  and  O1_11
REMARK    5  A    between atoms: C7_7  and  C10_10
REMARK                            x       y       z     vdW  Elec       q    Type
REMARK                         _______ _______ _______ _____ _____    ______ ____
ROOT
ATOM      1  C4  UNL     1      -8.084  76.435  32.493  0.00  0.00    +0.000 A 
ATOM      2  C5  UNL     1      -9.476  76.597  32.595  0.00  0.00    +0.000 A 
ATOM      3  C6  UNL     1     -10.073  76.903  33.827  0.00  0.00    +0.000 A 
ATOM      4  C7  UNL     1      -9.276  77.050  34.976  0.00  0.00    +0.000 A 
ATOM      5  C8  UNL     1      -7.886  76.888  34.876  0.00  0.00    +0.000 A 
ATOM      6  C9  UNL     1      -7.295  76.584  33.648  0.00  0.00    +0.000 A 
ATOM      7  C10 UNL     1      -9.908  77.377  36.299  0.00  0.00    +0.000 C 
ENDROOT
BRANCH   1   9
ATOM      8  C1  UNL     1      -8.490  76.173  30.024  0.00  0.00    +0.000 C 
ATOM      9  C2  UNL     1      -7.454  76.104  31.153  0.00  0.00    +0.000 C 
ATOM     10  C3  UNL     1      -6.258  77.018  30.862  0.00  0.00    +0.000 C 
ENDBRANCH   1   9
BRANCH   3  11
ATOM     11  O1  UNL     1     -11.456  77.060  33.913  0.00  0.00    +0.000 OA
ATOM     12  H14 UNL     1     -12.066  76.836  33.135  0.00  0.00    +0.000 HD
ENDBRANCH   3  11
TORSDOF 2
ENDMDL
MODEL 4
REMARK VINA RESULT:      -4.8      1.567      1.994
REMARK  Name = .\Carvacrol.pdb
REMARK  5 active torsions:
REMARK  status: ('A' for Active; 'I' for Inactive)
REMARK    1  A    between atoms: C1_1  and  C2_2
REMARK    2  A    between atoms: C2_2  and  C3_3
REMARK    3  A    between atoms: C2_2  and  C4_4
REMARK    4  A    between atoms: C6_6  and  O1_11
REMARK    5  A    between atoms: C7_7  and  C10_10
REMARK                            x       y       z     vdW  Elec       q    Type
REMARK                         _______ _______ _______ _____ _____    ______ ____
ROOT
ATOM      1  C4  UNL     1      -9.319  76.748  32.149  0.00  0.00    +0.000 A 
ATOM      2  C5  UNL     1      -8.238  77.387  32.781  0.00  0.00    +0.000 A 
ATOM      3  C6  UNL     1      -8.206  77.527  34.176  0.00  0.00    +0.000 A 
ATOM      4  C7  UNL     1      -9.262  77.027  34.957  0.00  0.00    +0.000 A 
ATOM      5  C8  UNL     1     -10.342  76.388  34.328  0.00  0.00    +0.000 A 
ATOM      6  C9  UNL     1     -10.370  76.250  32.938  0.00  0.00    +0.000 A 
ATOM      7  C10 UNL     1      -9.235  77.174  36.452  0.00  0.00    +0.000 C 
ENDROOT
BRANCH   1   9
ATOM      8  C1  UNL     1      -8.024  76.004  30.124  0.00  0.00    +0.000 C 
ATOM      9  C2  UNL     1      -9.337  76.604  30.639  0.00  0.00    +0.000 C 
ATOM     10  C3  UNL     1     -10.542  75.775  30.177  0.00  0.00    +0.000 C 
ENDBRANCH   1   9
BRANCH   3  11
ATOM     11  O1  UNL     1      -7.127  78.165  34.789  0.00  0.00    +0.000 OA
ATOM     12  H14 UNL     1      -6.689  77.787  35.622  0.00  0.00    +0.000 HD
ENDBRANCH   3  11
TORSDOF 2
ENDMDL
MODEL 5
REMARK VINA RESULT:      -4.6      2.740      4.577
REMARK  Name = .\Carvacrol.pdb
REMARK  5 active torsions:
REMARK  status: ('A' for Active; 'I' for Inactive)
REMARK    1  A    between atoms: C1_1  and  C2_2
REMARK    2  A    between atoms: C2_2  and  C3_3
REMARK    3  A    between atoms: C2_2  and  C4_4
REMARK    4  A    between atoms: C6_6  and  O1_11
REMARK    5  A    between atoms: C7_7  and  C10_10
REMARK                            x       y       z     vdW  Elec       q    Type
REMARK                         _______ _______ _______ _____ _____    ______ ____
ROOT
ATOM      1  C4  UNL     1      -7.824  76.715  33.634  0.00  0.00    +0.000 A 
ATOM      2  C5  UNL     1      -7.801  76.311  32.288  0.00  0.00    +0.000 A 
ATOM      3  C6  UNL     1      -6.681  76.565  31.483  0.00  0.00    +0.000 A 
ATOM      4  C7  UNL     1      -5.566  77.232  32.021  0.00  0.00    +0.000 A 
ATOM      5  C8  UNL     1      -5.587  77.636  33.365  0.00  0.00    +0.000 A 
ATOM      6  C9  UNL     1      -6.704  77.380  34.164  0.00  0.00    +0.000 A 
ATOM      7  C10 UNL     1      -4.363  77.508  31.165  0.00  0.00    +0.000 C 
ENDROOT
BRANCH   1   9
ATOM      8  C1  UNL     1      -9.186  77.469  35.610  0.00  0.00    +0.000 C 
ATOM      9  C2  UNL     1      -9.044  76.431  34.490  0.00  0.00    +0.000 C 
ATOM     10  C3  UNL     1     -10.316  76.361  33.636  0.00  0.00    +0.000 C 
ENDBRANCH   1   9
BRANCH   3  11
ATOM     11  O1  UNL     1      -6.673  76.159  30.148  0.00  0.00    +0.000 OA
ATOM     12  H14 UNL     1      -5.873  76.323  29.548  0.00  0.00    +0.000 HD
ENDBRANCH   3  11
TORSDOF 2
ENDMDL
MODEL 6
REMARK VINA RESULT:      -4.4      2.899      4.436
REMARK  Name = .\Carvacrol.pdb
REMARK  5 active torsions:
REMARK  status: ('A' for Active; 'I' for Inactive)
REMARK    1  A    between atoms: C1_1  and  C2_2
REMARK    2  A    between atoms: C2_2  and  C3_3
REMARK    3  A    between atoms: C2_2  and  C4_4
REMARK    4  A    between atoms: C6_6  and  O1_11
REMARK    5  A    between atoms: C7_7  and  C10_10
REMARK                            x       y       z     vdW  Elec       q    Type
REMARK                         _______ _______ _______ _____ _____    ______ ____
ROOT
ATOM      1  C4  UNL     1      -8.320  77.520  34.368  0.00  0.00    +0.000 A 
ATOM      2  C5  UNL     1      -7.677  78.749  34.147  0.00  0.00    +0.000 A 
ATOM      3  C6  UNL     1      -6.315  78.796  33.813  0.00  0.00    +0.000 A 
ATOM      4  C7  UNL     1      -5.580  77.603  33.696  0.00  0.00    +0.000 A 
ATOM      5  C8  UNL     1      -6.220  76.374  33.916  0.00  0.00    +0.000 A 
ATOM      6  C9  UNL     1      -7.576  76.332  34.249  0.00  0.00    +0.000 A 
ATOM      7  C10 UNL     1      -4.122  77.645  33.338  0.00  0.00    +0.000 C 
ENDROOT
BRANCH   1   9
ATOM      8  C1  UNL     1     -10.500  76.302  34.061  0.00  0.00    +0.000 C 
ATOM      9  C2  UNL     1      -9.793  77.488  34.729  0.00  0.00    +0.000 C 
ATOM     10  C3  UNL     1      -9.990  77.463  36.250  0.00  0.00    +0.000 C 
ENDBRANCH   1   9
BRANCH   3  11
ATOM     11  O1  UNL     1      -5.690  80.024  33.597  0.00  0.00    +0.000 OA
ATOM     12  H14 UNL     1      -6.202  80.897  33.652  0.00  0.00    +0.000 HD
ENDBRANCH   3  11
TORSDOF 2
ENDMDL
MODEL 7
REMARK VINA RESULT:      -4.4      2.255      3.460
REMARK  Name = .\Carvacrol.pdb
REMARK  5 active torsions:
REMARK  status: ('A' for Active; 'I' for Inactive)
REMARK    1  A    between atoms: C1_1  and  C2_2
REMARK    2  A    between atoms: C2_2  and  C3_3
REMARK    3  A    between atoms: C2_2  and  C4_4
REMARK    4  A    between atoms: C6_6  and  O1_11
REMARK    5  A    between atoms: C7_7  and  C10_10
REMARK                            x       y       z     vdW  Elec       q    Type
REMARK                         _______ _______ _______ _____ _____    ______ ____
ROOT
ATOM      1  C4  UNL     1     -10.186  76.365  33.180  0.00  0.00    +0.000 A 
ATOM      2  C5  UNL     1      -9.294  76.601  32.119  0.00  0.00    +0.000 A 
ATOM      3  C6  UNL     1      -7.929  76.807  32.364  0.00  0.00    +0.000 A 
ATOM      4  C7  UNL     1      -7.439  76.779  33.681  0.00  0.00    +0.000 A 
ATOM      5  C8  UNL     1      -8.327  76.544  34.742  0.00  0.00    +0.000 A 
ATOM      6  C9  UNL     1      -9.687  76.338  34.495  0.00  0.00    +0.000 A 
ATOM      7  C10 UNL     1      -5.978  76.999  33.951  0.00  0.00    +0.000 C 
ENDROOT
BRANCH   1   9
ATOM      8  C1  UNL     1     -12.442  77.460  32.983  0.00  0.00    +0.000 C 
ATOM      9  C2  UNL     1     -11.660  76.144  32.898  0.00  0.00    +0.000 C 
ATOM     10  C3  UNL     1     -11.867  75.465  31.539  0.00  0.00    +0.000 C 
ENDBRANCH   1   9
BRANCH   3  11
ATOM     11  O1  UNL     1      -7.056  77.040  31.300  0.00  0.00    +0.000 OA
ATOM     12  H14 UNL     1      -6.782  77.979  31.035  0.00  0.00    +0.000 HD
ENDBRANCH   3  11
TORSDOF 2
ENDMDL
MODEL 8
REMARK VINA RESULT:      -4.4      2.639      4.548
REMARK  Name = .\Carvacrol.pdb
REMARK  5 active torsions:
REMARK  status: ('A' for Active; 'I' for Inactive)
REMARK    1  A    between atoms: C1_1  and  C2_2
REMARK    2  A    between atoms: C2_2  and  C3_3
REMARK    3  A    between atoms: C2_2  and  C4_4
REMARK    4  A    between atoms: C6_6  and  O1_11
REMARK    5  A    between atoms: C7_7  and  C10_10
REMARK                            x       y       z     vdW  Elec       q    Type
REMARK                         _______ _______ _______ _____ _____    ______ ____
ROOT
ATOM      1  C4  UNL     1      -8.269  76.672  33.659  0.00  0.00    +0.000 A 
ATOM      2  C5  UNL     1      -7.059  76.944  34.319  0.00  0.00    +0.000 A 
ATOM      3  C6  UNL     1      -5.884  77.182  33.591  0.00  0.00    +0.000 A 
ATOM      4  C7  UNL     1      -5.909  77.149  32.186  0.00  0.00    +0.000 A 
ATOM      5  C8  UNL     1      -7.116  76.876  31.524  0.00  0.00    +0.000 A 
ATOM      6  C9  UNL     1      -8.285  76.640  32.253  0.00  0.00    +0.000 A 
ATOM      7  C10 UNL     1      -4.654  77.402  31.400  0.00  0.00    +0.000 C 
ENDROOT
BRANCH   1   9
ATOM      8  C1  UNL     1      -9.730  77.493  35.535  0.00  0.00    +0.000 C 
ATOM      9  C2  UNL     1      -9.531  76.417  34.462  0.00  0.00    +0.000 C 
ATOM     10  C3  UNL     1     -10.758  76.315  33.547  0.00  0.00    +0.000 C 
ENDBRANCH   1   9
BRANCH   3  11
ATOM     11  O1  UNL     1      -4.690  77.451  34.261  0.00  0.00    +0.000 OA
ATOM     12  H14 UNL     1      -3.998  78.087  33.880  0.00  0.00    +0.000 HD
ENDBRANCH   3  11
TORSDOF 2
ENDMDL
MODEL 9
REMARK VINA RESULT:      -4.3      1.659      2.957
REMARK  Name = .\Carvacrol.pdb
REMARK  5 active torsions:
REMARK  status: ('A' for Active; 'I' for Inactive)
REMARK    1  A    between atoms: C1_1  and  C2_2
REMARK    2  A    between atoms: C2_2  and  C3_3
REMARK    3  A    between atoms: C2_2  and  C4_4
REMARK    4  A    between atoms: C6_6  and  O1_11
REMARK    5  A    between atoms: C7_7  and  C10_10
REMARK                            x       y       z     vdW  Elec       q    Type
REMARK                         _______ _______ _______ _____ _____    ______ ____
ROOT
ATOM      1  C4  UNL     1      -8.531  77.349  33.676  0.00  0.00    +0.000 A 
ATOM      2  C5  UNL     1      -9.231  77.360  34.895  0.00  0.00    +0.000 A 
ATOM      3  C6  UNL     1     -10.441  78.057  35.019  0.00  0.00    +0.000 A 
ATOM      4  C7  UNL     1     -10.965  78.756  33.918  0.00  0.00    +0.000 A 
ATOM      5  C8  UNL     1     -10.268  78.747  32.700  0.00  0.00    +0.000 A 
ATOM      6  C9  UNL     1      -9.063  78.050  32.580  0.00  0.00    +0.000 A 
ATOM      7  C10 UNL     1     -12.261  79.506  34.043  0.00  0.00    +0.000 C 
ENDROOT
BRANCH   1   9
ATOM      8  C1  UNL     1      -6.930  76.214  32.102  0.00  0.00    +0.000 C 
ATOM      9  C2  UNL     1      -7.223  76.588  33.560  0.00  0.00    +0.000 C 
ATOM     10  C3  UNL     1      -6.063  77.385  34.169  0.00  0.00    +0.000 C 
ENDBRANCH   1   9
BRANCH   3  11
ATOM     11  O1  UNL     1     -11.124  78.060  36.235  0.00  0.00    +0.000 OA
ATOM     12  H14 UNL     1     -10.695  77.716  37.087  0.00  0.00    +0.000 HD
ENDBRANCH   3  11
TORSDOF 2
ENDMDL
