MODEL 1
REMARK VINA RESULT:      -4.2      0.000      0.000
REMARK  Name = .\Carvone.pdb
REMARK  3 active torsions:
REMARK  status: ('A' for Active; 'I' for Inactive)
REMARK    1  A    between atoms: C1_1  and  C2_2
REMARK    2  A    between atoms: C7_8  and  C8_9
REMARK    3  A    between atoms: C7_8  and  C9_10
REMARK                            x       y       z     vdW  Elec       q    Type
REMARK                         _______ _______ _______ _____ _____    ______ ____
ROOT
ATOM      1  C1  UNL     1       3.461  69.741  45.468  0.00  0.00    +0.000 C 
ATOM      2  C2  UNL     1       4.260  68.579  44.929  0.00  0.00    +0.000 C 
ATOM      3  C3  UNL     1       3.667  67.375  44.925  0.00  0.00    +0.000 C 
ATOM      4  C4  UNL     1       4.362  66.188  44.421  0.00  0.00    +0.000 C 
ATOM      5  O1  UNL     1       3.786  65.068  44.427  0.00  0.00    +0.000 OA
ATOM      6  C5  UNL     1       5.725  66.309  43.913  0.00  0.00    +0.000 C 
ATOM      7  C6  UNL     1       6.340  67.492  43.903  0.00  0.00    +0.000 C 
ATOM      8  C7  UNL     1       5.696  68.779  44.407  0.00  0.00    +0.000 C 
ATOM      9  C8  UNL     1       6.586  69.322  45.542  0.00  0.00    +0.000 C 
ATOM     10  C9  UNL     1       5.683  69.775  43.231  0.00  0.00    +0.000 C 
ENDROOT
TORSDOF 0
ENDMDL
MODEL 2
REMARK VINA RESULT:      -4.0      1.435      2.931
REMARK  Name = .\Carvone.pdb
REMARK  3 active torsions:
REMARK  status: ('A' for Active; 'I' for Inactive)
REMARK    1  A    between atoms: C1_1  and  C2_2
REMARK    2  A    between atoms: C7_8  and  C8_9
REMARK    3  A    between atoms: C7_8  and  C9_10
REMARK                            x       y       z     vdW  Elec       q    Type
REMARK                         _______ _______ _______ _____ _____    ______ ____
ROOT
ATOM      1  C1  UNL     1       6.918  70.163  43.450  0.00  0.00    +0.000 C 
ATOM      2  C2  UNL     1       5.689  69.614  44.132  0.00  0.00    +0.000 C 
ATOM      3  C3  UNL     1       5.505  68.285  44.094  0.00  0.00    +0.000 C 
ATOM      4  C4  UNL     1       4.342  67.660  44.726  0.00  0.00    +0.000 C 
ATOM      5  O1  UNL     1       4.190  66.411  44.678  0.00  0.00    +0.000 OA
ATOM      6  C5  UNL     1       3.358  68.492  45.413  0.00  0.00    +0.000 C 
ATOM      7  C6  UNL     1       3.513  69.815  45.469  0.00  0.00    +0.000 C 
ATOM      8  C7  UNL     1       4.690  70.551  44.840  0.00  0.00    +0.000 C 
ATOM      9  C8  UNL     1       4.112  71.553  43.821  0.00  0.00    +0.000 C 
ATOM     10  C9  UNL     1       5.411  71.313  45.970  0.00  0.00    +0.000 C 
ENDROOT
TORSDOF 0
ENDMDL
MODEL 3
REMARK VINA RESULT:      -3.9      5.503      6.993
REMARK  Name = .\Carvone.pdb
REMARK  3 active torsions:
REMARK  status: ('A' for Active; 'I' for Inactive)
REMARK    1  A    between atoms: C1_1  and  C2_2
REMARK    2  A    between atoms: C7_8  and  C8_9
REMARK    3  A    between atoms: C7_8  and  C9_10
REMARK                            x       y       z     vdW  Elec       q    Type
REMARK                         _______ _______ _______ _____ _____    ______ ____
ROOT
ATOM      1  C1  UNL     1       1.270  62.448  40.962  0.00  0.00    +0.000 C 
ATOM      2  C2  UNL     1       2.408  63.184  40.298  0.00  0.00    +0.000 C 
ATOM      3  C3  UNL     1       2.215  63.610  39.040  0.00  0.00    +0.000 C 
ATOM      4  C4  UNL     1       3.260  64.333  38.313  0.00  0.00    +0.000 C 
ATOM      5  O1  UNL     1       3.056  64.723  37.133  0.00  0.00    +0.000 OA
ATOM      6  C5  UNL     1       4.540  64.599  38.963  0.00  0.00    +0.000 C 
ATOM      7  C6  UNL     1       4.762  64.189  40.212  0.00  0.00    +0.000 C 
ATOM      8  C7  UNL     1       3.734  63.431  41.043  0.00  0.00    +0.000 C 
ATOM      9  C8  UNL     1       4.366  62.080  41.432  0.00  0.00    +0.000 C 
ATOM     10  C9  UNL     1       3.465  64.265  42.311  0.00  0.00    +0.000 C 
ENDROOT
TORSDOF 0
ENDMDL
MODEL 4
REMARK VINA RESULT:      -3.8      4.855      6.455
REMARK  Name = .\Carvone.pdb
REMARK  3 active torsions:
REMARK  status: ('A' for Active; 'I' for Inactive)
REMARK    1  A    between atoms: C1_1  and  C2_2
REMARK    2  A    between atoms: C7_8  and  C8_9
REMARK    3  A    between atoms: C7_8  and  C9_10
REMARK                            x       y       z     vdW  Elec       q    Type
REMARK                         _______ _______ _______ _____ _____    ______ ____
ROOT
ATOM      1  C1  UNL     1       6.161  64.949  41.035  0.00  0.00    +0.000 C 
ATOM      2  C2  UNL     1       4.804  64.404  40.664  0.00  0.00    +0.000 C 
ATOM      3  C3  UNL     1       4.354  64.662  39.425  0.00  0.00    +0.000 C 
ATOM      4  C4  UNL     1       3.050  64.175  38.973  0.00  0.00    +0.000 C 
ATOM      5  O1  UNL     1       2.649  64.429  37.807  0.00  0.00    +0.000 OA
ATOM      6  C5  UNL     1       2.215  63.394  39.882  0.00  0.00    +0.000 C 
ATOM      7  C6  UNL     1       2.633  63.121  41.118  0.00  0.00    +0.000 C 
ATOM      8  C7  UNL     1       3.975  63.586  41.673  0.00  0.00    +0.000 C 
ATOM      9  C8  UNL     1       3.681  64.448  42.917  0.00  0.00    +0.000 C 
ATOM     10  C9  UNL     1       4.761  62.326  42.085  0.00  0.00    +0.000 C 
ENDROOT
TORSDOF 0
ENDMDL
MODEL 5
REMARK VINA RESULT:      -3.7      5.111      6.647
REMARK  Name = .\Carvone.pdb
REMARK  3 active torsions:
REMARK  status: ('A' for Active; 'I' for Inactive)
REMARK    1  A    between atoms: C1_1  and  C2_2
REMARK    2  A    between atoms: C7_8  and  C8_9
REMARK    3  A    between atoms: C7_8  and  C9_10
REMARK                            x       y       z     vdW  Elec       q    Type
REMARK                         _______ _______ _______ _____ _____    ______ ____
ROOT
ATOM      1  C1  UNL     1       3.979  64.455  42.930  0.00  0.00    +0.000 C 
ATOM      2  C2  UNL     1       3.770  63.398  41.873  0.00  0.00    +0.000 C 
ATOM      3  C3  UNL     1       2.573  63.362  41.266  0.00  0.00    +0.000 C 
ATOM      4  C4  UNL     1       2.276  62.373  40.229  0.00  0.00    +0.000 C 
ATOM      5  O1  UNL     1       1.146  62.358  39.673  0.00  0.00    +0.000 OA
ATOM      6  C5  UNL     1       3.295  61.402  39.842  0.00  0.00    +0.000 C 
ATOM      7  C6  UNL     1       4.494  61.412  40.426  0.00  0.00    +0.000 C 
ATOM      8  C7  UNL     1       4.891  62.404  41.513  0.00  0.00    +0.000 C 
ATOM      9  C8  UNL     1       5.274  61.585  42.762  0.00  0.00    +0.000 C 
ATOM     10  C9  UNL     1       6.121  63.178  41.000  0.00  0.00    +0.000 C 
ENDROOT
TORSDOF 0
ENDMDL
MODEL 6
REMARK VINA RESULT:      -3.7      1.641      3.376
REMARK  Name = .\Carvone.pdb
REMARK  3 active torsions:
REMARK  status: ('A' for Active; 'I' for Inactive)
REMARK    1  A    between atoms: C1_1  and  C2_2
REMARK    2  A    between atoms: C7_8  and  C8_9
REMARK    3  A    between atoms: C7_8  and  C9_10
REMARK                            x       y       z     vdW  Elec       q    Type
REMARK                         _______ _______ _______ _____ _____    ______ ____
ROOT
ATOM      1  C1  UNL     1       4.114  64.582  43.853  0.00  0.00    +0.000 C 
ATOM      2  C2  UNL     1       4.620  65.976  44.138  0.00  0.00    +0.000 C 
ATOM      3  C3  UNL     1       3.767  66.833  44.720  0.00  0.00    +0.000 C 
ATOM      4  C4  UNL     1       4.166  68.206  45.035  0.00  0.00    +0.000 C 
ATOM      5  O1  UNL     1       3.349  68.993  45.581  0.00  0.00    +0.000 OA
ATOM      6  C5  UNL     1       5.516  68.659  44.714  0.00  0.00    +0.000 C 
ATOM      7  C6  UNL     1       6.387  67.831  44.137  0.00  0.00    +0.000 C 
ATOM      8  C7  UNL     1       6.060  66.387  43.772  0.00  0.00    +0.000 C 
ATOM      9  C8  UNL     1       6.267  66.240  42.252  0.00  0.00    +0.000 C 
ATOM     10  C9  UNL     1       7.059  65.487  44.524  0.00  0.00    +0.000 C 
ENDROOT
TORSDOF 0
ENDMDL
MODEL 7
REMARK VINA RESULT:      -3.6      5.526      7.123
REMARK  Name = .\Carvone.pdb
REMARK  3 active torsions:
REMARK  status: ('A' for Active; 'I' for Inactive)
REMARK    1  A    between atoms: C1_1  and  C2_2
REMARK    2  A    between atoms: C7_8  and  C8_9
REMARK    3  A    between atoms: C7_8  and  C9_10
REMARK                            x       y       z     vdW  Elec       q    Type
REMARK                         _______ _______ _______ _____ _____    ______ ____
ROOT
ATOM      1  C1  UNL     1       3.631  64.383  42.485  0.00  0.00    +0.000 C 
ATOM      2  C2  UNL     1       3.745  63.165  41.601  0.00  0.00    +0.000 C 
ATOM      3  C3  UNL     1       4.699  62.271  41.905  0.00  0.00    +0.000 C 
ATOM      4  C4  UNL     1       4.886  61.059  41.106  0.00  0.00    +0.000 C 
ATOM      5  O1  UNL     1       5.788  60.234  41.409  0.00  0.00    +0.000 OA
ATOM      6  C5  UNL     1       4.023  60.810  39.955  0.00  0.00    +0.000 C 
ATOM      7  C6  UNL     1       3.066  61.679  39.628  0.00  0.00    +0.000 C 
ATOM      8  C7  UNL     1       2.799  62.966  40.401  0.00  0.00    +0.000 C 
ATOM      9  C8  UNL     1       2.966  64.137  39.412  0.00  0.00    +0.000 C 
ATOM     10  C9  UNL     1       1.341  62.907  40.898  0.00  0.00    +0.000 C 
ENDROOT
TORSDOF 0
ENDMDL
MODEL 8
REMARK VINA RESULT:      -3.5      5.293      7.003
REMARK  Name = .\Carvone.pdb
REMARK  3 active torsions:
REMARK  status: ('A' for Active; 'I' for Inactive)
REMARK    1  A    between atoms: C1_1  and  C2_2
REMARK    2  A    between atoms: C7_8  and  C8_9
REMARK    3  A    between atoms: C7_8  and  C9_10
REMARK                            x       y       z     vdW  Elec       q    Type
REMARK                         _______ _______ _______ _____ _____    ______ ____
ROOT
ATOM      1  C1  UNL     1       3.242  65.047  38.250  0.00  0.00    +0.000 C 
ATOM      2  C2  UNL     1       3.605  64.244  39.475  0.00  0.00    +0.000 C 
ATOM      3  C3  UNL     1       4.445  64.810  40.356  0.00  0.00    +0.000 C 
ATOM      4  C4  UNL     1       4.855  64.108  41.573  0.00  0.00    +0.000 C 
ATOM      5  O1  UNL     1       5.645  64.659  42.385  0.00  0.00    +0.000 OA
ATOM      6  C5  UNL     1       4.345  62.767  41.842  0.00  0.00    +0.000 C 
ATOM      7  C6  UNL     1       3.509  62.178  40.987  0.00  0.00    +0.000 C 
ATOM      8  C7  UNL     1       3.028  62.832  39.696  0.00  0.00    +0.000 C 
ATOM      9  C8  UNL     1       3.453  61.914  38.533  0.00  0.00    +0.000 C 
ATOM     10  C9  UNL     1       1.491  62.908  39.766  0.00  0.00    +0.000 C 
ENDROOT
TORSDOF 0
ENDMDL
MODEL 9
REMARK VINA RESULT:      -3.5      5.060      6.619
REMARK  Name = .\Carvone.pdb
REMARK  3 active torsions:
REMARK  status: ('A' for Active; 'I' for Inactive)
REMARK    1  A    between atoms: C1_1  and  C2_2
REMARK    2  A    between atoms: C7_8  and  C8_9
REMARK    3  A    between atoms: C7_8  and  C9_10
REMARK                            x       y       z     vdW  Elec       q    Type
REMARK                         _______ _______ _______ _____ _____    ______ ____
ROOT
ATOM      1  C1  UNL     1       1.211  62.997  40.307  0.00  0.00    +0.000 C 
ATOM      2  C2  UNL     1       2.657  63.393  40.484  0.00  0.00    +0.000 C 
ATOM      3  C3  UNL     1       3.102  63.557  41.740  0.00  0.00    +0.000 C 
ATOM      4  C4  UNL     1       4.488  63.940  42.011  0.00  0.00    +0.000 C 
ATOM      5  O1  UNL     1       4.883  64.089  43.198  0.00  0.00    +0.000 OA
ATOM      6  C5  UNL     1       5.412  64.150  40.900  0.00  0.00    +0.000 C 
ATOM      7  C6  UNL     1       5.001  63.993  39.641  0.00  0.00    +0.000 C 
ATOM      8  C7  UNL     1       3.578  63.597  39.264  0.00  0.00    +0.000 C 
ATOM      9  C8  UNL     1       3.010  64.720  38.373  0.00  0.00    +0.000 C 
ATOM     10  C9  UNL     1       3.665  62.286  38.459  0.00  0.00    +0.000 C 
ENDROOT
TORSDOF 0
ENDMDL
