MODEL 1
REMARK VINA RESULT:      -4.5      0.000      0.000
REMARK  Name = .\Carvacrol.pdb
REMARK  5 active torsions:
REMARK  status: ('A' for Active; 'I' for Inactive)
REMARK    1  A    between atoms: C1_1  and  C2_2
REMARK    2  A    between atoms: C2_2  and  C3_3
REMARK    3  A    between atoms: C2_2  and  C4_4
REMARK    4  A    between atoms: C6_6  and  O1_11
REMARK    5  A    between atoms: C7_7  and  C10_10
REMARK                            x       y       z     vdW  Elec       q    Type
REMARK                         _______ _______ _______ _____ _____    ______ ____
ROOT
ATOM      1  C4  UNL     1     -11.783  30.930   1.915  0.00  0.00    +0.000 A 
ATOM      2  C5  UNL     1     -10.721  31.848   1.989  0.00  0.00    +0.000 A 
ATOM      3  C6  UNL     1     -10.242  32.482   0.833  0.00  0.00    +0.000 A 
ATOM      4  C7  UNL     1     -10.823  32.201  -0.415  0.00  0.00    +0.000 A 
ATOM      5  C8  UNL     1     -11.884  31.285  -0.491  0.00  0.00    +0.000 A 
ATOM      6  C9  UNL     1     -12.359  30.656   0.662  0.00  0.00    +0.000 A 
ATOM      7  C10 UNL     1     -10.315  32.876  -1.657  0.00  0.00    +0.000 C 
ENDROOT
BRANCH   1   9
ATOM      8  C1  UNL     1     -12.970  28.918   2.849  0.00  0.00    +0.000 C 
ATOM      9  C2  UNL     1     -12.290  30.253   3.175  0.00  0.00    +0.000 C 
ATOM     10  C3  UNL     1     -11.159  30.063   4.194  0.00  0.00    +0.000 C 
ENDBRANCH   1   9
BRANCH   3  11
ATOM     11  O1  UNL     1      -9.187  33.391   0.922  0.00  0.00    +0.000 OA
ATOM     12  H14 UNL     1      -8.657  33.672   0.105  0.00  0.00    +0.000 HD
ENDBRANCH   3  11
TORSDOF 2
ENDMDL
MODEL 2
REMARK VINA RESULT:      -4.4      1.043      1.701
REMARK  Name = .\Carvacrol.pdb
REMARK  5 active torsions:
REMARK  status: ('A' for Active; 'I' for Inactive)
REMARK    1  A    between atoms: C1_1  and  C2_2
REMARK    2  A    between atoms: C2_2  and  C3_3
REMARK    3  A    between atoms: C2_2  and  C4_4
REMARK    4  A    between atoms: C6_6  and  O1_11
REMARK    5  A    between atoms: C7_7  and  C10_10
REMARK                            x       y       z     vdW  Elec       q    Type
REMARK                         _______ _______ _______ _____ _____    ______ ____
ROOT
ATOM      1  C4  UNL     1     -11.180  30.920   3.276  0.00  0.00    +0.000 A 
ATOM      2  C5  UNL     1     -10.333  31.819   2.606  0.00  0.00    +0.000 A 
ATOM      3  C6  UNL     1     -10.519  32.100   1.245  0.00  0.00    +0.000 A 
ATOM      4  C7  UNL     1     -11.562  31.479   0.536  0.00  0.00    +0.000 A 
ATOM      5  C8  UNL     1     -12.410  30.581   1.202  0.00  0.00    +0.000 A 
ATOM      6  C9  UNL     1     -12.221  30.304   2.559  0.00  0.00    +0.000 A 
ATOM      7  C10 UNL     1     -11.767  31.775  -0.923  0.00  0.00    +0.000 C 
ENDROOT
BRANCH   1   9
ATOM      8  C1  UNL     1     -12.073  29.722   5.300  0.00  0.00    +0.000 C 
ATOM      9  C2  UNL     1     -10.965  30.627   4.749  0.00  0.00    +0.000 C 
ATOM     10  C3  UNL     1      -9.579  30.018   4.995  0.00  0.00    +0.000 C 
ENDBRANCH   1   9
BRANCH   3  11
ATOM     11  O1  UNL     1      -9.669  32.994   0.594  0.00  0.00    +0.000 OA
ATOM     12  H14 UNL     1      -8.673  32.821   0.517  0.00  0.00    +0.000 HD
ENDBRANCH   3  11
TORSDOF 2
ENDMDL
MODEL 3
REMARK VINA RESULT:      -4.4      1.687      4.641
REMARK  Name = .\Carvacrol.pdb
REMARK  5 active torsions:
REMARK  status: ('A' for Active; 'I' for Inactive)
REMARK    1  A    between atoms: C1_1  and  C2_2
REMARK    2  A    between atoms: C2_2  and  C3_3
REMARK    3  A    between atoms: C2_2  and  C4_4
REMARK    4  A    between atoms: C6_6  and  O1_11
REMARK    5  A    between atoms: C7_7  and  C10_10
REMARK                            x       y       z     vdW  Elec       q    Type
REMARK                         _______ _______ _______ _____ _____    ______ ____
ROOT
ATOM      1  C4  UNL     1     -11.320  32.151  -1.971  0.00  0.00    +0.000 A 
ATOM      2  C5  UNL     1     -10.353  32.838  -1.218  0.00  0.00    +0.000 A 
ATOM      3  C6  UNL     1     -10.241  32.630   0.164  0.00  0.00    +0.000 A 
ATOM      4  C7  UNL     1     -11.102  31.725   0.810  0.00  0.00    +0.000 A 
ATOM      5  C8  UNL     1     -12.068  31.038   0.060  0.00  0.00    +0.000 A 
ATOM      6  C9  UNL     1     -12.177  31.248  -1.317  0.00  0.00    +0.000 A 
ATOM      7  C10 UNL     1     -10.988  31.497   2.290  0.00  0.00    +0.000 C 
ENDROOT
BRANCH   1   9
ATOM      8  C1  UNL     1     -11.080  31.120  -4.254  0.00  0.00    +0.000 C 
ATOM      9  C2  UNL     1     -11.428  32.389  -3.466  0.00  0.00    +0.000 C 
ATOM     10  C3  UNL     1     -12.820  32.909  -3.845  0.00  0.00    +0.000 C 
ENDBRANCH   1   9
BRANCH   3  11
ATOM     11  O1  UNL     1      -9.276  33.320   0.899  0.00  0.00    +0.000 OA
ATOM     12  H14 UNL     1      -8.315  33.002   0.944  0.00  0.00    +0.000 HD
ENDBRANCH   3  11
TORSDOF 2
ENDMDL
MODEL 4
REMARK VINA RESULT:      -3.9      2.438      5.060
REMARK  Name = .\Carvacrol.pdb
REMARK  5 active torsions:
REMARK  status: ('A' for Active; 'I' for Inactive)
REMARK    1  A    between atoms: C1_1  and  C2_2
REMARK    2  A    between atoms: C2_2  and  C3_3
REMARK    3  A    between atoms: C2_2  and  C4_4
REMARK    4  A    between atoms: C6_6  and  O1_11
REMARK    5  A    between atoms: C7_7  and  C10_10
REMARK                            x       y       z     vdW  Elec       q    Type
REMARK                         _______ _______ _______ _____ _____    ______ ____
ROOT
ATOM      1  C4  UNL     1     -11.673  31.841  -2.359  0.00  0.00    +0.000 A 
ATOM      2  C5  UNL     1     -12.225  31.187  -1.244  0.00  0.00    +0.000 A 
ATOM      3  C6  UNL     1     -11.700  31.394   0.040  0.00  0.00    +0.000 A 
ATOM      4  C7  UNL     1     -10.610  32.264   0.221  0.00  0.00    +0.000 A 
ATOM      5  C8  UNL     1     -10.058  32.918  -0.891  0.00  0.00    +0.000 A 
ATOM      6  C9  UNL     1     -10.584  32.710  -2.168  0.00  0.00    +0.000 A 
ATOM      7  C10 UNL     1     -10.043  32.491   1.593  0.00  0.00    +0.000 C 
ENDROOT
BRANCH   1   9
ATOM      8  C1  UNL     1     -13.050  32.824  -4.221  0.00  0.00    +0.000 C 
ATOM      9  C2  UNL     1     -12.254  31.605  -3.741  0.00  0.00    +0.000 C 
ATOM     10  C3  UNL     1     -11.157  31.231  -4.745  0.00  0.00    +0.000 C 
ENDBRANCH   1   9
BRANCH   3  11
ATOM     11  O1  UNL     1     -12.257  30.737   1.137  0.00  0.00    +0.000 OA
ATOM     12  H14 UNL     1     -12.633  31.247   1.928  0.00  0.00    +0.000 HD
ENDBRANCH   3  11
TORSDOF 2
ENDMDL
MODEL 5
REMARK VINA RESULT:      -3.8      1.949      4.595
REMARK  Name = .\Carvacrol.pdb
REMARK  5 active torsions:
REMARK  status: ('A' for Active; 'I' for Inactive)
REMARK    1  A    between atoms: C1_1  and  C2_2
REMARK    2  A    between atoms: C2_2  and  C3_3
REMARK    3  A    between atoms: C2_2  and  C4_4
REMARK    4  A    between atoms: C6_6  and  O1_11
REMARK    5  A    between atoms: C7_7  and  C10_10
REMARK                            x       y       z     vdW  Elec       q    Type
REMARK                         _______ _______ _______ _____ _____    ______ ____
ROOT
ATOM      1  C4  UNL     1     -11.393  31.620   0.193  0.00  0.00    +0.000 A 
ATOM      2  C5  UNL     1     -12.321  30.740   0.775  0.00  0.00    +0.000 A 
ATOM      3  C6  UNL     1     -12.258  30.433   2.142  0.00  0.00    +0.000 A 
ATOM      4  C7  UNL     1     -11.258  31.008   2.945  0.00  0.00    +0.000 A 
ATOM      5  C8  UNL     1     -10.330  31.887   2.367  0.00  0.00    +0.000 A 
ATOM      6  C9  UNL     1     -10.396  32.191   1.005  0.00  0.00    +0.000 A 
ATOM      7  C10 UNL     1     -11.184  30.684   4.410  0.00  0.00    +0.000 C 
ENDROOT
BRANCH   1   9
ATOM      8  C1  UNL     1     -10.231  32.703  -1.758  0.00  0.00    +0.000 C 
ATOM      9  C2  UNL     1     -11.476  31.941  -1.288  0.00  0.00    +0.000 C 
ATOM     10  C3  UNL     1     -11.692  30.670  -2.118  0.00  0.00    +0.000 C 
ENDBRANCH   1   9
BRANCH   3  11
ATOM     11  O1  UNL     1     -13.187  29.557   2.705  0.00  0.00    +0.000 OA
ATOM     12  H14 UNL     1     -13.248  29.419   3.707  0.00  0.00    +0.000 HD
ENDBRANCH   3  11
TORSDOF 2
ENDMDL
MODEL 6
REMARK VINA RESULT:      -3.8      2.436      4.616
REMARK  Name = .\Carvacrol.pdb
REMARK  5 active torsions:
REMARK  status: ('A' for Active; 'I' for Inactive)
REMARK    1  A    between atoms: C1_1  and  C2_2
REMARK    2  A    between atoms: C2_2  and  C3_3
REMARK    3  A    between atoms: C2_2  and  C4_4
REMARK    4  A    between atoms: C6_6  and  O1_11
REMARK    5  A    between atoms: C7_7  and  C10_10
REMARK                            x       y       z     vdW  Elec       q    Type
REMARK                         _______ _______ _______ _____ _____    ______ ____
ROOT
ATOM      1  C4  UNL     1     -12.447  30.823  -2.239  0.00  0.00    +0.000 A 
ATOM      2  C5  UNL     1     -11.305  31.576  -2.560  0.00  0.00    +0.000 A 
ATOM      3  C6  UNL     1     -10.553  32.200  -1.554  0.00  0.00    +0.000 A 
ATOM      4  C7  UNL     1     -10.940  32.074  -0.208  0.00  0.00    +0.000 A 
ATOM      5  C8  UNL     1     -12.080  31.322   0.115  0.00  0.00    +0.000 A 
ATOM      6  C9  UNL     1     -12.827  30.702  -0.891  0.00  0.00    +0.000 A 
ATOM      7  C10 UNL     1     -10.139  32.739   0.875  0.00  0.00    +0.000 C 
ENDROOT
BRANCH   1   9
ATOM      8  C1  UNL     1     -14.060  31.185  -4.136  0.00  0.00    +0.000 C 
ATOM      9  C2  UNL     1     -13.250  30.155  -3.340  0.00  0.00    +0.000 C 
ATOM     10  C3  UNL     1     -12.343  29.332  -4.264  0.00  0.00    +0.000 C 
ENDBRANCH   1   9
BRANCH   3  11
ATOM     11  O1  UNL     1      -9.422  32.945  -1.887  0.00  0.00    +0.000 OA
ATOM     12  H14 UNL     1      -9.468  33.713  -2.548  0.00  0.00    +0.000 HD
ENDBRANCH   3  11
TORSDOF 2
ENDMDL
MODEL 7
REMARK VINA RESULT:      -3.7      3.187      4.421
REMARK  Name = .\Carvacrol.pdb
REMARK  5 active torsions:
REMARK  status: ('A' for Active; 'I' for Inactive)
REMARK    1  A    between atoms: C1_1  and  C2_2
REMARK    2  A    between atoms: C2_2  and  C3_3
REMARK    3  A    between atoms: C2_2  and  C4_4
REMARK    4  A    between atoms: C6_6  and  O1_11
REMARK    5  A    between atoms: C7_7  and  C10_10
REMARK                            x       y       z     vdW  Elec       q    Type
REMARK                         _______ _______ _______ _____ _____    ______ ____
ROOT
ATOM      1  C4  UNL     1     -12.424  30.011   4.659  0.00  0.00    +0.000 A 
ATOM      2  C5  UNL     1     -11.718  30.794   3.730  0.00  0.00    +0.000 A 
ATOM      3  C6  UNL     1     -10.338  31.002   3.871  0.00  0.00    +0.000 A 
ATOM      4  C7  UNL     1      -9.647  30.424   4.951  0.00  0.00    +0.000 A 
ATOM      5  C8  UNL     1     -10.351  29.642   5.880  0.00  0.00    +0.000 A 
ATOM      6  C9  UNL     1     -11.725  29.437   5.736  0.00  0.00    +0.000 A 
ATOM      7  C10 UNL     1      -8.170  30.643   5.108  0.00  0.00    +0.000 C 
ENDROOT
BRANCH   1   9
ATOM      8  C1  UNL     1     -14.223  29.027   3.201  0.00  0.00    +0.000 C 
ATOM      9  C2  UNL     1     -13.917  29.796   4.492  0.00  0.00    +0.000 C 
ATOM     10  C3  UNL     1     -14.514  29.086   5.713  0.00  0.00    +0.000 C 
ENDBRANCH   1   9
BRANCH   3  11
ATOM     11  O1  UNL     1      -9.651  31.782   2.941  0.00  0.00    +0.000 OA
ATOM     12  H14 UNL     1     -10.078  32.067   2.067  0.00  0.00    +0.000 HD
ENDBRANCH   3  11
TORSDOF 2
ENDMDL
MODEL 8
REMARK VINA RESULT:      -3.6      3.125      5.397
REMARK  Name = .\Carvacrol.pdb
REMARK  5 active torsions:
REMARK  status: ('A' for Active; 'I' for Inactive)
REMARK    1  A    between atoms: C1_1  and  C2_2
REMARK    2  A    between atoms: C2_2  and  C3_3
REMARK    3  A    between atoms: C2_2  and  C4_4
REMARK    4  A    between atoms: C6_6  and  O1_11
REMARK    5  A    between atoms: C7_7  and  C10_10
REMARK                            x       y       z     vdW  Elec       q    Type
REMARK                         _______ _______ _______ _____ _____    ______ ____
ROOT
ATOM      1  C4  UNL     1     -10.064  30.100   6.870  0.00  0.00    +0.000 A 
ATOM      2  C5  UNL     1      -9.461  30.733   5.770  0.00  0.00    +0.000 A 
ATOM      3  C6  UNL     1     -10.122  30.810   4.536  0.00  0.00    +0.000 A 
ATOM      4  C7  UNL     1     -11.402  30.248   4.389  0.00  0.00    +0.000 A 
ATOM      5  C8  UNL     1     -12.007  29.614   5.485  0.00  0.00    +0.000 A 
ATOM      6  C9  UNL     1     -11.345  29.541   6.714  0.00  0.00    +0.000 A 
ATOM      7  C10 UNL     1     -12.116  30.325   3.069  0.00  0.00    +0.000 C 
ENDROOT
BRANCH   1   9
ATOM      8  C1  UNL     1      -8.242  28.952   8.170  0.00  0.00    +0.000 C 
ATOM      9  C2  UNL     1      -9.335  30.027   8.198  0.00  0.00    +0.000 C 
ATOM     10  C3  UNL     1      -8.757  31.392   8.588  0.00  0.00    +0.000 C 
ENDBRANCH   1   9
BRANCH   3  11
ATOM     11  O1  UNL     1      -9.509  31.441   3.453  0.00  0.00    +0.000 OA
ATOM     12  H14 UNL     1      -9.076  32.353   3.545  0.00  0.00    +0.000 HD
ENDBRANCH   3  11
TORSDOF 2
ENDMDL
MODEL 9
REMARK VINA RESULT:      -3.5      3.959      5.605
REMARK  Name = .\Carvacrol.pdb
REMARK  5 active torsions:
REMARK  status: ('A' for Active; 'I' for Inactive)
REMARK    1  A    between atoms: C1_1  and  C2_2
REMARK    2  A    between atoms: C2_2  and  C3_3
REMARK    3  A    between atoms: C2_2  and  C4_4
REMARK    4  A    between atoms: C6_6  and  O1_11
REMARK    5  A    between atoms: C7_7  and  C10_10
REMARK                            x       y       z     vdW  Elec       q    Type
REMARK                         _______ _______ _______ _____ _____    ______ ____
ROOT
ATOM      1  C4  UNL     1      -9.633  30.502   5.076  0.00  0.00    +0.000 A 
ATOM      2  C5  UNL     1     -10.413  29.908   6.082  0.00  0.00    +0.000 A 
ATOM      3  C6  UNL     1     -11.782  29.676   5.884  0.00  0.00    +0.000 A 
ATOM      4  C7  UNL     1     -12.387  30.040   4.669  0.00  0.00    +0.000 A 
ATOM      5  C8  UNL     1     -11.610  30.634   3.662  0.00  0.00    +0.000 A 
ATOM      6  C9  UNL     1     -10.246  30.862   3.863  0.00  0.00    +0.000 A 
ATOM      7  C10 UNL     1     -13.853  29.795   4.449  0.00  0.00    +0.000 C 
ENDROOT
BRANCH   1   9
ATOM      8  C1  UNL     1      -7.907  31.397   6.673  0.00  0.00    +0.000 C 
ATOM      9  C2  UNL     1      -8.153  30.746   5.307  0.00  0.00    +0.000 C 
ATOM     10  C3  UNL     1      -7.349  29.448   5.161  0.00  0.00    +0.000 C 
ENDBRANCH   1   9
BRANCH   3  11
ATOM     11  O1  UNL     1     -12.543  29.086   6.893  0.00  0.00    +0.000 OA
ATOM     12  H14 UNL     1     -13.362  28.527   6.683  0.00  0.00    +0.000 HD
ENDBRANCH   3  11
TORSDOF 2
ENDMDL
