MODEL 1
REMARK VINA RESULT:      -4.6      0.000      0.000
REMARK  Name = .\Carvone.pdb
REMARK  3 active torsions:
REMARK  status: ('A' for Active; 'I' for Inactive)
REMARK    1  A    between atoms: C1_1  and  C2_2
REMARK    2  A    between atoms: C7_8  and  C8_9
REMARK    3  A    between atoms: C7_8  and  C9_10
REMARK                            x       y       z     vdW  Elec       q    Type
REMARK                         _______ _______ _______ _____ _____    ______ ____
ROOT
ATOM      1  C1  UNL     1      -0.849  40.146  40.455  0.00  0.00    +0.000 C 
ATOM      2  C2  UNL     1       0.263  39.231  40.002  0.00  0.00    +0.000 C 
ATOM      3  C3  UNL     1      -0.037  37.933  39.839  0.00  0.00    +0.000 C 
ATOM      4  C4  UNL     1       0.974  36.968  39.402  0.00  0.00    +0.000 C 
ATOM      5  O1  UNL     1       0.670  35.755  39.256  0.00  0.00    +0.000 OA
ATOM      6  C5  UNL     1       2.337  37.420  39.137  0.00  0.00    +0.000 C 
ATOM      7  C6  UNL     1       2.666  38.703  39.289  0.00  0.00    +0.000 C 
ATOM      8  C7  UNL     1       1.681  39.775  39.739  0.00  0.00    +0.000 C 
ATOM      9  C8  UNL     1       2.241  40.398  41.033  0.00  0.00    +0.000 C 
ATOM     10  C9  UNL     1       1.626  40.842  38.629  0.00  0.00    +0.000 C 
ENDROOT
TORSDOF 0
ENDMDL
MODEL 2
REMARK VINA RESULT:      -4.5      0.546      2.542
REMARK  Name = .\Carvone.pdb
REMARK  3 active torsions:
REMARK  status: ('A' for Active; 'I' for Inactive)
REMARK    1  A    between atoms: C1_1  and  C2_2
REMARK    2  A    between atoms: C7_8  and  C8_9
REMARK    3  A    between atoms: C7_8  and  C9_10
REMARK                            x       y       z     vdW  Elec       q    Type
REMARK                         _______ _______ _______ _____ _____    ______ ____
ROOT
ATOM      1  C1  UNL     1       3.975  39.418  39.169  0.00  0.00    +0.000 C 
ATOM      2  C2  UNL     1       2.556  38.947  39.375  0.00  0.00    +0.000 C 
ATOM      3  C3  UNL     1       2.318  37.633  39.236  0.00  0.00    +0.000 C 
ATOM      4  C4  UNL     1       0.974  37.081  39.416  0.00  0.00    +0.000 C 
ATOM      5  O1  UNL     1       0.774  35.845  39.281  0.00  0.00    +0.000 OA
ATOM      6  C5  UNL     1      -0.134  37.970  39.753  0.00  0.00    +0.000 C 
ATOM      7  C6  UNL     1       0.071  39.280  39.898  0.00  0.00    +0.000 C 
ATOM      8  C7  UNL     1       1.434  39.941  39.730  0.00  0.00    +0.000 C 
ATOM      9  C8  UNL     1       1.299  40.988  38.606  0.00  0.00    +0.000 C 
ATOM     10  C9  UNL     1       1.769  40.644  41.060  0.00  0.00    +0.000 C 
ENDROOT
TORSDOF 0
ENDMDL
MODEL 3
REMARK VINA RESULT:      -4.4      1.713      3.423
REMARK  Name = .\Carvone.pdb
REMARK  3 active torsions:
REMARK  status: ('A' for Active; 'I' for Inactive)
REMARK    1  A    between atoms: C1_1  and  C2_2
REMARK    2  A    between atoms: C7_8  and  C8_9
REMARK    3  A    between atoms: C7_8  and  C9_10
REMARK                            x       y       z     vdW  Elec       q    Type
REMARK                         _______ _______ _______ _____ _____    ______ ____
ROOT
ATOM      1  C1  UNL     1       4.048  39.313  39.062  0.00  0.00    +0.000 C 
ATOM      2  C2  UNL     1       2.833  38.426  39.175  0.00  0.00    +0.000 C 
ATOM      3  C3  UNL     1       1.677  39.008  39.530  0.00  0.00    +0.000 C 
ATOM      4  C4  UNL     1       0.444  38.229  39.666  0.00  0.00    +0.000 C 
ATOM      5  O1  UNL     1      -0.629  38.796  40.000  0.00  0.00    +0.000 OA
ATOM      6  C5  UNL     1       0.466  36.791  39.412  0.00  0.00    +0.000 C 
ATOM      7  C6  UNL     1       1.598  36.184  39.057  0.00  0.00    +0.000 C 
ATOM      8  C7  UNL     1       2.927  36.913  38.892  0.00  0.00    +0.000 C 
ATOM      9  C8  UNL     1       3.928  36.268  39.870  0.00  0.00    +0.000 C 
ATOM     10  C9  UNL     1       3.395  36.689  37.441  0.00  0.00    +0.000 C 
ENDROOT
TORSDOF 0
ENDMDL
MODEL 4
REMARK VINA RESULT:      -4.4      2.309      3.863
REMARK  Name = .\Carvone.pdb
REMARK  3 active torsions:
REMARK  status: ('A' for Active; 'I' for Inactive)
REMARK    1  A    between atoms: C1_1  and  C2_2
REMARK    2  A    between atoms: C7_8  and  C8_9
REMARK    3  A    between atoms: C7_8  and  C9_10
REMARK                            x       y       z     vdW  Elec       q    Type
REMARK                         _______ _______ _______ _____ _____    ______ ____
ROOT
ATOM      1  C1  UNL     1       3.509  37.848  39.279  0.00  0.00    +0.000 C 
ATOM      2  C2  UNL     1       2.320  38.768  39.412  0.00  0.00    +0.000 C 
ATOM      3  C3  UNL     1       2.424  39.991  38.870  0.00  0.00    +0.000 C 
ATOM      4  C4  UNL     1       1.324  40.954  38.948  0.00  0.00    +0.000 C 
ATOM      5  O1  UNL     1       1.444  42.096  38.432  0.00  0.00    +0.000 OA
ATOM      6  C5  UNL     1       0.086  40.583  39.627  0.00  0.00    +0.000 C 
ATOM      7  C6  UNL     1      -0.049  39.376  40.176  0.00  0.00    +0.000 C 
ATOM      8  C7  UNL     1       1.042  38.311  40.143  0.00  0.00    +0.000 C 
ATOM      9  C8  UNL     1       1.382  37.960  41.605  0.00  0.00    +0.000 C 
ATOM     10  C9  UNL     1       0.455  37.076  39.433  0.00  0.00    +0.000 C 
ENDROOT
TORSDOF 0
ENDMDL
MODEL 5
REMARK VINA RESULT:      -4.2      2.629      3.900
REMARK  Name = .\Carvone.pdb
REMARK  3 active torsions:
REMARK  status: ('A' for Active; 'I' for Inactive)
REMARK    1  A    between atoms: C1_1  and  C2_2
REMARK    2  A    between atoms: C7_8  and  C8_9
REMARK    3  A    between atoms: C7_8  and  C9_10
REMARK                            x       y       z     vdW  Elec       q    Type
REMARK                         _______ _______ _______ _____ _____    ______ ____
ROOT
ATOM      1  C1  UNL     1       0.770  41.396  38.028  0.00  0.00    +0.000 C 
ATOM      2  C2  UNL     1       0.305  40.992  39.406  0.00  0.00    +0.000 C 
ATOM      3  C3  UNL     1      -0.751  41.646  39.916  0.00  0.00    +0.000 C 
ATOM      4  C4  UNL     1      -1.274  41.325  41.244  0.00  0.00    +0.000 C 
ATOM      5  O1  UNL     1      -2.266  41.951  41.702  0.00  0.00    +0.000 OA
ATOM      6  C5  UNL     1      -0.641  40.275  42.037  0.00  0.00    +0.000 C 
ATOM      7  C6  UNL     1       0.409  39.607  41.559  0.00  0.00    +0.000 C 
ATOM      8  C7  UNL     1       1.021  39.874  40.188  0.00  0.00    +0.000 C 
ATOM      9  C8  UNL     1       2.495  40.264  40.413  0.00  0.00    +0.000 C 
ATOM     10  C9  UNL     1       0.946  38.558  39.389  0.00  0.00    +0.000 C 
ENDROOT
TORSDOF 0
ENDMDL
MODEL 6
REMARK VINA RESULT:      -4.2      1.582      2.552
REMARK  Name = .\Carvone.pdb
REMARK  3 active torsions:
REMARK  status: ('A' for Active; 'I' for Inactive)
REMARK    1  A    between atoms: C1_1  and  C2_2
REMARK    2  A    between atoms: C7_8  and  C8_9
REMARK    3  A    between atoms: C7_8  and  C9_10
REMARK                            x       y       z     vdW  Elec       q    Type
REMARK                         _______ _______ _______ _____ _____    ______ ____
ROOT
ATOM      1  C1  UNL     1       1.481  40.713  42.799  0.00  0.00    +0.000 C 
ATOM      2  C2  UNL     1       1.081  39.707  41.746  0.00  0.00    +0.000 C 
ATOM      3  C3  UNL     1       1.617  38.480  41.832  0.00  0.00    +0.000 C 
ATOM      4  C4  UNL     1       1.289  37.437  40.858  0.00  0.00    +0.000 C 
ATOM      5  O1  UNL     1       1.803  36.292  40.959  0.00  0.00    +0.000 OA
ATOM      6  C5  UNL     1       0.363  37.731  39.769  0.00  0.00    +0.000 C 
ATOM      7  C6  UNL     1      -0.186  38.941  39.656  0.00  0.00    +0.000 C 
ATOM      8  C7  UNL     1       0.096  40.086  40.622  0.00  0.00    +0.000 C 
ATOM      9  C8  UNL     1       0.680  41.249  39.796  0.00  0.00    +0.000 C 
ATOM     10  C9  UNL     1      -1.251  40.508  41.239  0.00  0.00    +0.000 C 
ENDROOT
TORSDOF 0
ENDMDL
MODEL 7
REMARK VINA RESULT:      -4.2      2.446      3.726
REMARK  Name = .\Carvone.pdb
REMARK  3 active torsions:
REMARK  status: ('A' for Active; 'I' for Inactive)
REMARK    1  A    between atoms: C1_1  and  C2_2
REMARK    2  A    between atoms: C7_8  and  C8_9
REMARK    3  A    between atoms: C7_8  and  C9_10
REMARK                            x       y       z     vdW  Elec       q    Type
REMARK                         _______ _______ _______ _____ _____    ______ ____
ROOT
ATOM      1  C1  UNL     1       2.669  37.015  42.020  0.00  0.00    +0.000 C 
ATOM      2  C2  UNL     1       1.640  37.939  41.417  0.00  0.00    +0.000 C 
ATOM      3  C3  UNL     1       1.033  38.806  42.242  0.00  0.00    +0.000 C 
ATOM      4  C4  UNL     1       0.021  39.743  41.750  0.00  0.00    +0.000 C 
ATOM      5  O1  UNL     1      -0.536  40.548  42.543  0.00  0.00    +0.000 OA
ATOM      6  C5  UNL     1      -0.341  39.739  40.336  0.00  0.00    +0.000 C 
ATOM      7  C6  UNL     1       0.244  38.890  39.491  0.00  0.00    +0.000 C 
ATOM      8  C7  UNL     1       1.306  37.882  39.913  0.00  0.00    +0.000 C 
ATOM      9  C8  UNL     1       0.774  36.480  39.557  0.00  0.00    +0.000 C 
ATOM     10  C9  UNL     1       2.575  38.182  39.092  0.00  0.00    +0.000 C 
ENDROOT
TORSDOF 0
ENDMDL
MODEL 8
REMARK VINA RESULT:      -4.1      1.666      3.027
REMARK  Name = .\Carvone.pdb
REMARK  3 active torsions:
REMARK  status: ('A' for Active; 'I' for Inactive)
REMARK    1  A    between atoms: C1_1  and  C2_2
REMARK    2  A    between atoms: C7_8  and  C8_9
REMARK    3  A    between atoms: C7_8  and  C9_10
REMARK                            x       y       z     vdW  Elec       q    Type
REMARK                         _______ _______ _______ _____ _____    ______ ____
ROOT
ATOM      1  C1  UNL     1       2.884  40.045  39.725  0.00  0.00    +0.000 C 
ATOM      2  C2  UNL     1       2.490  38.624  39.403  0.00  0.00    +0.000 C 
ATOM      3  C3  UNL     1       3.248  37.962  38.514  0.00  0.00    +0.000 C 
ATOM      4  C4  UNL     1       2.945  36.580  38.137  0.00  0.00    +0.000 C 
ATOM      5  O1  UNL     1       3.670  35.979  37.301  0.00  0.00    +0.000 OA
ATOM      6  C5  UNL     1       1.799  35.902  38.735  0.00  0.00    +0.000 C 
ATOM      7  C6  UNL     1       1.028  36.532  39.622  0.00  0.00    +0.000 C 
ATOM      8  C7  UNL     1       1.267  37.969  40.073  0.00  0.00    +0.000 C 
ATOM      9  C8  UNL     1      -0.002  38.774  39.727  0.00  0.00    +0.000 C 
ATOM     10  C9  UNL     1       1.468  37.942  41.600  0.00  0.00    +0.000 C 
ENDROOT
TORSDOF 0
ENDMDL
MODEL 9
REMARK VINA RESULT:      -4.1      4.174      5.578
REMARK  Name = .\Carvone.pdb
REMARK  3 active torsions:
REMARK  status: ('A' for Active; 'I' for Inactive)
REMARK    1  A    between atoms: C1_1  and  C2_2
REMARK    2  A    between atoms: C7_8  and  C8_9
REMARK    3  A    between atoms: C7_8  and  C9_10
REMARK                            x       y       z     vdW  Elec       q    Type
REMARK                         _______ _______ _______ _____ _____    ______ ____
ROOT
ATOM      1  C1  UNL     1       4.397  36.578  40.251  0.00  0.00    +0.000 C 
ATOM      2  C2  UNL     1       4.279  35.437  39.269  0.00  0.00    +0.000 C 
ATOM      3  C3  UNL     1       5.125  34.406  39.419  0.00  0.00    +0.000 C 
ATOM      4  C4  UNL     1       5.086  33.254  38.517  0.00  0.00    +0.000 C 
ATOM      5  O1  UNL     1       5.889  32.297  38.677  0.00  0.00    +0.000 OA
ATOM      6  C5  UNL     1       4.112  33.219  37.429  0.00  0.00    +0.000 C 
ATOM      7  C6  UNL     1       3.259  34.228  37.254  0.00  0.00    +0.000 C 
ATOM      8  C7  UNL     1       3.226  35.466  38.144  0.00  0.00    +0.000 C 
ATOM      9  C8  UNL     1       3.474  36.688  37.237  0.00  0.00    +0.000 C 
ATOM     10  C9  UNL     1       1.816  35.551  38.759  0.00  0.00    +0.000 C 
ENDROOT
TORSDOF 0
ENDMDL
