MODEL 1
REMARK VINA RESULT:      -4.4      0.000      0.000
REMARK  Name = .\Carvacrol.pdb
REMARK  5 active torsions:
REMARK  status: ('A' for Active; 'I' for Inactive)
REMARK    1  A    between atoms: C1_1  and  C2_2
REMARK    2  A    between atoms: C2_2  and  C3_3
REMARK    3  A    between atoms: C2_2  and  C4_4
REMARK    4  A    between atoms: C6_6  and  O1_11
REMARK    5  A    between atoms: C7_7  and  C10_10
REMARK                            x       y       z     vdW  Elec       q    Type
REMARK                         _______ _______ _______ _____ _____    ______ ____
ROOT
ATOM      1  C4  UNL     1     -18.414  59.771  84.890  0.00  0.00    +0.000 A 
ATOM      2  C5  UNL     1     -18.419  58.645  84.049  0.00  0.00    +0.000 A 
ATOM      3  C6  UNL     1     -18.248  58.784  82.664  0.00  0.00    +0.000 A 
ATOM      4  C7  UNL     1     -18.069  60.060  82.103  0.00  0.00    +0.000 A 
ATOM      5  C8  UNL     1     -18.063  61.186  82.941  0.00  0.00    +0.000 A 
ATOM      6  C9  UNL     1     -18.234  61.044  84.320  0.00  0.00    +0.000 A 
ATOM      7  C10 UNL     1     -17.885  60.217  80.621  0.00  0.00    +0.000 C 
ENDROOT
BRANCH   1   9
ATOM      8  C1  UNL     1     -20.086  59.634  86.765  0.00  0.00    +0.000 C 
ATOM      9  C2  UNL     1     -18.600  59.602  86.386  0.00  0.00    +0.000 C 
ATOM     10  C3  UNL     1     -17.930  58.317  86.886  0.00  0.00    +0.000 C 
ENDBRANCH   1   9
BRANCH   3  11
ATOM     11  O1  UNL     1     -18.257  57.656  81.843  0.00  0.00    +0.000 OA
ATOM     12  H14 UNL     1     -18.001  57.710  80.863  0.00  0.00    +0.000 HD
ENDBRANCH   3  11
TORSDOF 2
ENDMDL
MODEL 2
REMARK VINA RESULT:      -4.3      1.730      2.270
REMARK  Name = .\Carvacrol.pdb
REMARK  5 active torsions:
REMARK  status: ('A' for Active; 'I' for Inactive)
REMARK    1  A    between atoms: C1_1  and  C2_2
REMARK    2  A    between atoms: C2_2  and  C3_3
REMARK    3  A    between atoms: C2_2  and  C4_4
REMARK    4  A    between atoms: C6_6  and  O1_11
REMARK    5  A    between atoms: C7_7  and  C10_10
REMARK                            x       y       z     vdW  Elec       q    Type
REMARK                         _______ _______ _______ _____ _____    ______ ____
ROOT
ATOM      1  C4  UNL     1     -18.669  60.967  83.500  0.00  0.00    +0.000 A 
ATOM      2  C5  UNL     1     -17.724  60.469  82.588  0.00  0.00    +0.000 A 
ATOM      3  C6  UNL     1     -17.970  60.507  81.207  0.00  0.00    +0.000 A 
ATOM      4  C7  UNL     1     -19.175  61.047  80.724  0.00  0.00    +0.000 A 
ATOM      5  C8  UNL     1     -20.121  61.545  81.633  0.00  0.00    +0.000 A 
ATOM      6  C9  UNL     1     -19.871  61.506  83.007  0.00  0.00    +0.000 A 
ATOM      7  C10 UNL     1     -19.446  61.091  79.247  0.00  0.00    +0.000 C 
ENDROOT
BRANCH   1   9
ATOM      8  C1  UNL     1     -19.436  61.710  85.778  0.00  0.00    +0.000 C 
ATOM      9  C2  UNL     1     -18.386  60.918  84.990  0.00  0.00    +0.000 C 
ATOM     10  C3  UNL     1     -18.297  59.470  85.489  0.00  0.00    +0.000 C 
ENDBRANCH   1   9
BRANCH   3  11
ATOM     11  O1  UNL     1     -17.022  60.008  80.314  0.00  0.00    +0.000 OA
ATOM     12  H14 UNL     1     -16.803  59.019  80.269  0.00  0.00    +0.000 HD
ENDBRANCH   3  11
TORSDOF 2
ENDMDL
MODEL 3
REMARK VINA RESULT:      -4.2      1.964      4.751
REMARK  Name = .\Carvacrol.pdb
REMARK  5 active torsions:
REMARK  status: ('A' for Active; 'I' for Inactive)
REMARK    1  A    between atoms: C1_1  and  C2_2
REMARK    2  A    between atoms: C2_2  and  C3_3
REMARK    3  A    between atoms: C2_2  and  C4_4
REMARK    4  A    between atoms: C6_6  and  O1_11
REMARK    5  A    between atoms: C7_7  and  C10_10
REMARK                            x       y       z     vdW  Elec       q    Type
REMARK                         _______ _______ _______ _____ _____    ______ ____
ROOT
ATOM      1  C4  UNL     1     -18.400  60.536  82.342  0.00  0.00    +0.000 A 
ATOM      2  C5  UNL     1     -18.363  61.326  83.503  0.00  0.00    +0.000 A 
ATOM      3  C6  UNL     1     -18.237  60.733  84.768  0.00  0.00    +0.000 A 
ATOM      4  C7  UNL     1     -18.147  59.335  84.883  0.00  0.00    +0.000 A 
ATOM      5  C8  UNL     1     -18.184  58.544  83.724  0.00  0.00    +0.000 A 
ATOM      6  C9  UNL     1     -18.309  59.138  82.466  0.00  0.00    +0.000 A 
ATOM      7  C10 UNL     1     -18.012  58.694  86.235  0.00  0.00    +0.000 C 
ENDROOT
BRANCH   1   9
ATOM      8  C1  UNL     1     -18.057  60.258  79.865  0.00  0.00    +0.000 C 
ATOM      9  C2  UNL     1     -18.537  61.193  80.981  0.00  0.00    +0.000 C 
ATOM     10  C3  UNL     1     -19.978  61.656  80.732  0.00  0.00    +0.000 C 
ENDBRANCH   1   9
BRANCH   3  11
ATOM     11  O1  UNL     1     -18.202  61.531  85.913  0.00  0.00    +0.000 OA
ATOM     12  H14 UNL     1     -17.396  61.544  86.527  0.00  0.00    +0.000 HD
ENDBRANCH   3  11
TORSDOF 2
ENDMDL
MODEL 4
REMARK VINA RESULT:      -3.8      2.222      4.615
REMARK  Name = .\Carvacrol.pdb
REMARK  5 active torsions:
REMARK  status: ('A' for Active; 'I' for Inactive)
REMARK    1  A    between atoms: C1_1  and  C2_2
REMARK    2  A    between atoms: C2_2  and  C3_3
REMARK    3  A    between atoms: C2_2  and  C4_4
REMARK    4  A    between atoms: C6_6  and  O1_11
REMARK    5  A    between atoms: C7_7  and  C10_10
REMARK                            x       y       z     vdW  Elec       q    Type
REMARK                         _______ _______ _______ _____ _____    ______ ____
ROOT
ATOM      1  C4  UNL     1     -19.219  60.923  82.552  0.00  0.00    +0.000 A 
ATOM      2  C5  UNL     1     -18.453  60.368  83.591  0.00  0.00    +0.000 A 
ATOM      3  C6  UNL     1     -18.693  60.723  84.927  0.00  0.00    +0.000 A 
ATOM      4  C7  UNL     1     -19.709  61.644  85.237  0.00  0.00    +0.000 A 
ATOM      5  C8  UNL     1     -20.475  62.200  84.201  0.00  0.00    +0.000 A 
ATOM      6  C9  UNL     1     -20.234  61.843  82.872  0.00  0.00    +0.000 A 
ATOM      7  C10 UNL     1     -19.971  62.029  86.665  0.00  0.00    +0.000 C 
ENDROOT
BRANCH   1   9
ATOM      8  C1  UNL     1     -19.492  61.578  80.139  0.00  0.00    +0.000 C 
ATOM      9  C2  UNL     1     -18.946  60.528  81.113  0.00  0.00    +0.000 C 
ATOM     10  C3  UNL     1     -17.451  60.282  80.881  0.00  0.00    +0.000 C 
ENDBRANCH   1   9
BRANCH   3  11
ATOM     11  O1  UNL     1     -17.923  60.164  85.947  0.00  0.00    +0.000 OA
ATOM     12  H14 UNL     1     -17.139  60.660  86.355  0.00  0.00    +0.000 HD
ENDBRANCH   3  11
TORSDOF 2
ENDMDL
MODEL 5
REMARK VINA RESULT:      -3.8      2.140      3.109
REMARK  Name = .\Carvacrol.pdb
REMARK  5 active torsions:
REMARK  status: ('A' for Active; 'I' for Inactive)
REMARK    1  A    between atoms: C1_1  and  C2_2
REMARK    2  A    between atoms: C2_2  and  C3_3
REMARK    3  A    between atoms: C2_2  and  C4_4
REMARK    4  A    between atoms: C6_6  and  O1_11
REMARK    5  A    between atoms: C7_7  and  C10_10
REMARK                            x       y       z     vdW  Elec       q    Type
REMARK                         _______ _______ _______ _____ _____    ______ ____
ROOT
ATOM      1  C4  UNL     1     -19.401  61.044  82.842  0.00  0.00    +0.000 A 
ATOM      2  C5  UNL     1     -18.154  60.614  82.358  0.00  0.00    +0.000 A 
ATOM      3  C6  UNL     1     -17.952  60.405  80.985  0.00  0.00    +0.000 A 
ATOM      4  C7  UNL     1     -19.004  60.626  80.080  0.00  0.00    +0.000 A 
ATOM      5  C8  UNL     1     -20.251  61.056  80.561  0.00  0.00    +0.000 A 
ATOM      6  C9  UNL     1     -20.447  61.263  81.929  0.00  0.00    +0.000 A 
ATOM      7  C10 UNL     1     -18.796  60.404  78.609  0.00  0.00    +0.000 C 
ENDROOT
BRANCH   1   9
ATOM      8  C1  UNL     1     -18.258  61.335  85.065  0.00  0.00    +0.000 C 
ATOM      9  C2  UNL     1     -19.602  61.265  84.330  0.00  0.00    +0.000 C 
ATOM     10  C3  UNL     1     -20.442  62.521  84.594  0.00  0.00    +0.000 C 
ENDBRANCH   1   9
BRANCH   3  11
ATOM     11  O1  UNL     1     -16.709  59.976  80.519  0.00  0.00    +0.000 OA
ATOM     12  H14 UNL     1     -15.929  60.616  80.421  0.00  0.00    +0.000 HD
ENDBRANCH   3  11
TORSDOF 2
ENDMDL
MODEL 6
REMARK VINA RESULT:      -3.7      2.307      4.518
REMARK  Name = .\Carvacrol.pdb
REMARK  5 active torsions:
REMARK  status: ('A' for Active; 'I' for Inactive)
REMARK    1  A    between atoms: C1_1  and  C2_2
REMARK    2  A    between atoms: C2_2  and  C3_3
REMARK    3  A    between atoms: C2_2  and  C4_4
REMARK    4  A    between atoms: C6_6  and  O1_11
REMARK    5  A    between atoms: C7_7  and  C10_10
REMARK                            x       y       z     vdW  Elec       q    Type
REMARK                         _______ _______ _______ _____ _____    ______ ____
ROOT
ATOM      1  C4  UNL     1     -18.500  59.999  83.326  0.00  0.00    +0.000 A 
ATOM      2  C5  UNL     1     -19.365  61.102  83.233  0.00  0.00    +0.000 A 
ATOM      3  C6  UNL     1     -19.799  61.772  84.387  0.00  0.00    +0.000 A 
ATOM      4  C7  UNL     1     -19.367  61.340  85.653  0.00  0.00    +0.000 A 
ATOM      5  C8  UNL     1     -18.503  60.238  85.749  0.00  0.00    +0.000 A 
ATOM      6  C9  UNL     1     -18.073  59.575  84.597  0.00  0.00    +0.000 A 
ATOM      7  C10 UNL     1     -19.828  62.052  86.893  0.00  0.00    +0.000 C 
ENDROOT
BRANCH   1   9
ATOM      8  C1  UNL     1     -19.137  58.362  81.525  0.00  0.00    +0.000 C 
ATOM      9  C2  UNL     1     -18.040  59.286  82.068  0.00  0.00    +0.000 C 
ATOM     10  C3  UNL     1     -17.583  60.288  81.000  0.00  0.00    +0.000 C 
ENDBRANCH   1   9
BRANCH   3  11
ATOM     11  O1  UNL     1     -20.659  62.865  84.278  0.00  0.00    +0.000 OA
ATOM     12  H14 UNL     1     -21.636  62.800  84.538  0.00  0.00    +0.000 HD
ENDBRANCH   3  11
TORSDOF 2
ENDMDL
MODEL 7
REMARK VINA RESULT:      -3.6      2.331      4.644
REMARK  Name = .\Carvacrol.pdb
REMARK  5 active torsions:
REMARK  status: ('A' for Active; 'I' for Inactive)
REMARK    1  A    between atoms: C1_1  and  C2_2
REMARK    2  A    between atoms: C2_2  and  C3_3
REMARK    3  A    between atoms: C2_2  and  C4_4
REMARK    4  A    between atoms: C6_6  and  O1_11
REMARK    5  A    between atoms: C7_7  and  C10_10
REMARK                            x       y       z     vdW  Elec       q    Type
REMARK                         _______ _______ _______ _____ _____    ______ ____
ROOT
ATOM      1  C4  UNL     1     -18.697  59.459  84.739  0.00  0.00    +0.000 A 
ATOM      2  C5  UNL     1     -18.040  59.323  85.973  0.00  0.00    +0.000 A 
ATOM      3  C6  UNL     1     -18.270  58.205  86.788  0.00  0.00    +0.000 A 
ATOM      4  C7  UNL     1     -19.167  57.206  86.372  0.00  0.00    +0.000 A 
ATOM      5  C8  UNL     1     -19.824  57.339  85.139  0.00  0.00    +0.000 A 
ATOM      6  C9  UNL     1     -19.592  58.454  84.330  0.00  0.00    +0.000 A 
ATOM      7  C10 UNL     1     -19.419  56.005  87.239  0.00  0.00    +0.000 C 
ENDROOT
BRANCH   1   9
ATOM      8  C1  UNL     1     -17.992  60.263  82.461  0.00  0.00    +0.000 C 
ATOM      9  C2  UNL     1     -18.436  60.675  83.870  0.00  0.00    +0.000 C 
ATOM     10  C3  UNL     1     -19.665  61.591  83.816  0.00  0.00    +0.000 C 
ENDBRANCH   1   9
BRANCH   3  11
ATOM     11  O1  UNL     1     -17.611  58.084  88.012  0.00  0.00    +0.000 OA
ATOM     12  H14 UNL     1     -16.966  57.324  88.195  0.00  0.00    +0.000 HD
ENDBRANCH   3  11
TORSDOF 2
ENDMDL
MODEL 8
REMARK VINA RESULT:      -3.6      1.894      4.524
REMARK  Name = .\Carvacrol.pdb
REMARK  5 active torsions:
REMARK  status: ('A' for Active; 'I' for Inactive)
REMARK    1  A    between atoms: C1_1  and  C2_2
REMARK    2  A    between atoms: C2_2  and  C3_3
REMARK    3  A    between atoms: C2_2  and  C4_4
REMARK    4  A    between atoms: C6_6  and  O1_11
REMARK    5  A    between atoms: C7_7  and  C10_10
REMARK                            x       y       z     vdW  Elec       q    Type
REMARK                         _______ _______ _______ _____ _____    ______ ____
ROOT
ATOM      1  C4  UNL     1     -18.908  60.493  83.853  0.00  0.00    +0.000 A 
ATOM      2  C5  UNL     1     -18.011  59.754  84.642  0.00  0.00    +0.000 A 
ATOM      3  C6  UNL     1     -18.364  59.347  85.937  0.00  0.00    +0.000 A 
ATOM      4  C7  UNL     1     -19.627  59.678  86.457  0.00  0.00    +0.000 A 
ATOM      5  C8  UNL     1     -20.525  60.416  85.671  0.00  0.00    +0.000 A 
ATOM      6  C9  UNL     1     -20.170  60.820  84.381  0.00  0.00    +0.000 A 
ATOM      7  C10 UNL     1     -20.012  59.245  87.843  0.00  0.00    +0.000 C 
ENDROOT
BRANCH   1   9
ATOM      8  C1  UNL     1     -17.788  59.796  81.711  0.00  0.00    +0.000 C 
ATOM      9  C2  UNL     1     -18.510  60.926  82.454  0.00  0.00    +0.000 C 
ATOM     10  C3  UNL     1     -19.726  61.420  81.660  0.00  0.00    +0.000 C 
ENDBRANCH   1   9
BRANCH   3  11
ATOM     11  O1  UNL     1     -17.462  58.615  86.709  0.00  0.00    +0.000 OA
ATOM     12  H14 UNL     1     -16.690  58.109  86.288  0.00  0.00    +0.000 HD
ENDBRANCH   3  11
TORSDOF 2
ENDMDL
MODEL 9
REMARK VINA RESULT:      -3.6      2.053      2.704
REMARK  Name = .\Carvacrol.pdb
REMARK  5 active torsions:
REMARK  status: ('A' for Active; 'I' for Inactive)
REMARK    1  A    between atoms: C1_1  and  C2_2
REMARK    2  A    between atoms: C2_2  and  C3_3
REMARK    3  A    between atoms: C2_2  and  C4_4
REMARK    4  A    between atoms: C6_6  and  O1_11
REMARK    5  A    between atoms: C7_7  and  C10_10
REMARK                            x       y       z     vdW  Elec       q    Type
REMARK                         _______ _______ _______ _____ _____    ______ ____
ROOT
ATOM      1  C4  UNL     1     -19.148  60.557  83.885  0.00  0.00    +0.000 A 
ATOM      2  C5  UNL     1     -19.893  61.391  83.034  0.00  0.00    +0.000 A 
ATOM      3  C6  UNL     1     -19.640  61.416  81.655  0.00  0.00    +0.000 A 
ATOM      4  C7  UNL     1     -18.632  60.601  81.111  0.00  0.00    +0.000 A 
ATOM      5  C8  UNL     1     -17.887  59.767  81.959  0.00  0.00    +0.000 A 
ATOM      6  C9  UNL     1     -18.142  59.745  83.332  0.00  0.00    +0.000 A 
ATOM      7  C10 UNL     1     -18.355  60.622  79.635  0.00  0.00    +0.000 C 
ENDROOT
BRANCH   1   9
ATOM      8  C1  UNL     1     -18.422  59.670  86.125  0.00  0.00    +0.000 C 
ATOM      9  C2  UNL     1     -19.435  60.543  85.375  0.00  0.00    +0.000 C 
ATOM     10  C3  UNL     1     -19.468  61.965  85.946  0.00  0.00    +0.000 C 
ENDBRANCH   1   9
BRANCH   3  11
ATOM     11  O1  UNL     1     -20.387  62.250  80.822  0.00  0.00    +0.000 OA
ATOM     12  H14 UNL     1     -21.254  61.940  80.399  0.00  0.00    +0.000 HD
ENDBRANCH   3  11
TORSDOF 2
ENDMDL
