MODEL 1
REMARK VINA RESULT:      -4.1      0.000      0.000
REMARK  Name = .\Carvone.pdb
REMARK  3 active torsions:
REMARK  status: ('A' for Active; 'I' for Inactive)
REMARK    1  A    between atoms: C1_1  and  C2_2
REMARK    2  A    between atoms: C7_8  and  C8_9
REMARK    3  A    between atoms: C7_8  and  C9_10
REMARK                            x       y       z     vdW  Elec       q    Type
REMARK                         _______ _______ _______ _____ _____    ______ ____
ROOT
ATOM      1  C1  UNL     1     -16.152  68.716 124.562  0.00  0.00    +0.000 C 
ATOM      2  C2  UNL     1     -16.683  69.968 125.217  0.00  0.00    +0.000 C 
ATOM      3  C3  UNL     1     -16.185  71.142 124.797  0.00  0.00    +0.000 C 
ATOM      4  C4  UNL     1     -16.638  72.409 125.372  0.00  0.00    +0.000 C 
ATOM      5  O1  UNL     1     -16.156  73.498 124.962  0.00  0.00    +0.000 OA
ATOM      6  C5  UNL     1     -17.649  72.405 126.425  0.00  0.00    +0.000 C 
ATOM      7  C6  UNL     1     -18.164  71.256 126.863  0.00  0.00    +0.000 C 
ATOM      8  C7  UNL     1     -17.753  69.891 126.324  0.00  0.00    +0.000 C 
ATOM      9  C8  UNL     1     -17.208  69.074 127.512  0.00  0.00    +0.000 C 
ATOM     10  C9  UNL     1     -19.023  69.218 125.767  0.00  0.00    +0.000 C 
ENDROOT
TORSDOF 0
ENDMDL
MODEL 2
REMARK VINA RESULT:      -3.8      1.326      1.491
REMARK  Name = .\Carvone.pdb
REMARK  3 active torsions:
REMARK  status: ('A' for Active; 'I' for Inactive)
REMARK    1  A    between atoms: C1_1  and  C2_2
REMARK    2  A    between atoms: C7_8  and  C8_9
REMARK    3  A    between atoms: C7_8  and  C9_10
REMARK                            x       y       z     vdW  Elec       q    Type
REMARK                         _______ _______ _______ _____ _____    ______ ____
ROOT
ATOM      1  C1  UNL     1     -17.749  68.290 124.005  0.00  0.00    +0.000 C 
ATOM      2  C2  UNL     1     -17.853  69.639 124.674  0.00  0.00    +0.000 C 
ATOM      3  C3  UNL     1     -16.779  70.443 124.607  0.00  0.00    +0.000 C 
ATOM      4  C4  UNL     1     -16.784  71.769 125.226  0.00  0.00    +0.000 C 
ATOM      5  O1  UNL     1     -15.766  72.506 125.151  0.00  0.00    +0.000 OA
ATOM      6  C5  UNL     1     -17.975  72.235 125.930  0.00  0.00    +0.000 C 
ATOM      7  C6  UNL     1     -19.057  71.460 126.013  0.00  0.00    +0.000 C 
ATOM      8  C7  UNL     1     -19.143  70.067 125.401  0.00  0.00    +0.000 C 
ATOM      9  C8  UNL     1     -19.439  69.080 126.548  0.00  0.00    +0.000 C 
ATOM     10  C9  UNL     1     -20.317  70.075 124.404  0.00  0.00    +0.000 C 
ENDROOT
TORSDOF 0
ENDMDL
MODEL 3
REMARK VINA RESULT:      -3.7      1.217      2.597
REMARK  Name = .\Carvone.pdb
REMARK  3 active torsions:
REMARK  status: ('A' for Active; 'I' for Inactive)
REMARK    1  A    between atoms: C1_1  and  C2_2
REMARK    2  A    between atoms: C7_8  and  C8_9
REMARK    3  A    between atoms: C7_8  and  C9_10
REMARK                            x       y       z     vdW  Elec       q    Type
REMARK                         _______ _______ _______ _____ _____    ______ ____
ROOT
ATOM      1  C1  UNL     1     -20.232  70.449 125.931  0.00  0.00    +0.000 C 
ATOM      2  C2  UNL     1     -18.791  70.640 125.526  0.00  0.00    +0.000 C 
ATOM      3  C3  UNL     1     -18.318  71.896 125.506  0.00  0.00    +0.000 C 
ATOM      4  C4  UNL     1     -16.934  72.181 125.126  0.00  0.00    +0.000 C 
ATOM      5  O1  UNL     1     -16.512  73.367 125.114  0.00  0.00    +0.000 OA
ATOM      6  C5  UNL     1     -16.043  71.083 124.760  0.00  0.00    +0.000 C 
ATOM      7  C6  UNL     1     -16.483  69.824 124.771  0.00  0.00    +0.000 C 
ATOM      8  C7  UNL     1     -17.906  69.434 125.152  0.00  0.00    +0.000 C 
ATOM      9  C8  UNL     1     -18.519  68.700 123.943  0.00  0.00    +0.000 C 
ATOM     10  C9  UNL     1     -17.812  68.472 126.353  0.00  0.00    +0.000 C 
ENDROOT
TORSDOF 0
ENDMDL
MODEL 4
REMARK VINA RESULT:      -3.4      2.236      3.563
REMARK  Name = .\Carvone.pdb
REMARK  3 active torsions:
REMARK  status: ('A' for Active; 'I' for Inactive)
REMARK    1  A    between atoms: C1_1  and  C2_2
REMARK    2  A    between atoms: C7_8  and  C8_9
REMARK    3  A    between atoms: C7_8  and  C9_10
REMARK                            x       y       z     vdW  Elec       q    Type
REMARK                         _______ _______ _______ _____ _____    ______ ____
ROOT
ATOM      1  C1  UNL     1     -17.587  72.635 126.678  0.00  0.00    +0.000 C 
ATOM      2  C2  UNL     1     -18.242  71.527 125.889  0.00  0.00    +0.000 C 
ATOM      3  C3  UNL     1     -19.504  71.726 125.480  0.00  0.00    +0.000 C 
ATOM      4  C4  UNL     1     -20.223  70.709 124.709  0.00  0.00    +0.000 C 
ATOM      5  O1  UNL     1     -21.407  70.918 124.335  0.00  0.00    +0.000 OA
ATOM      6  C5  UNL     1     -19.560  69.452 124.376  0.00  0.00    +0.000 C 
ATOM      7  C6  UNL     1     -18.306  69.224 124.767  0.00  0.00    +0.000 C 
ATOM      8  C7  UNL     1     -17.482  70.223 125.572  0.00  0.00    +0.000 C 
ATOM      9  C8  UNL     1     -17.078  69.529 126.888  0.00  0.00    +0.000 C 
ATOM     10  C9  UNL     1     -16.222  70.549 124.746  0.00  0.00    +0.000 C 
ENDROOT
TORSDOF 0
ENDMDL
MODEL 5
REMARK VINA RESULT:      -3.3      1.833      3.189
REMARK  Name = .\Carvone.pdb
REMARK  3 active torsions:
REMARK  status: ('A' for Active; 'I' for Inactive)
REMARK    1  A    between atoms: C1_1  and  C2_2
REMARK    2  A    between atoms: C7_8  and  C8_9
REMARK    3  A    between atoms: C7_8  and  C9_10
REMARK                            x       y       z     vdW  Elec       q    Type
REMARK                         _______ _______ _______ _____ _____    ______ ____
ROOT
ATOM      1  C1  UNL     1     -17.579  72.228 125.319  0.00  0.00    +0.000 C 
ATOM      2  C2  UNL     1     -17.018  70.833 125.195  0.00  0.00    +0.000 C 
ATOM      3  C3  UNL     1     -15.744  70.716 124.788  0.00  0.00    +0.000 C 
ATOM      4  C4  UNL     1     -15.112  69.404 124.638  0.00  0.00    +0.000 C 
ATOM      5  O1  UNL     1     -13.915  69.318 124.255  0.00  0.00    +0.000 OA
ATOM      6  C5  UNL     1     -15.875  68.195 124.933  0.00  0.00    +0.000 C 
ATOM      7  C6  UNL     1     -17.142  68.278 125.340  0.00  0.00    +0.000 C 
ATOM      8  C7  UNL     1     -17.881  69.599 125.524  0.00  0.00    +0.000 C 
ATOM      9  C8  UNL     1     -19.112  69.569 124.596  0.00  0.00    +0.000 C 
ATOM     10  C9  UNL     1     -18.338  69.667 126.994  0.00  0.00    +0.000 C 
ENDROOT
TORSDOF 0
ENDMDL
MODEL 6
REMARK VINA RESULT:      -3.3      2.483      3.732
REMARK  Name = .\Carvone.pdb
REMARK  3 active torsions:
REMARK  status: ('A' for Active; 'I' for Inactive)
REMARK    1  A    between atoms: C1_1  and  C2_2
REMARK    2  A    between atoms: C7_8  and  C8_9
REMARK    3  A    between atoms: C7_8  and  C9_10
REMARK                            x       y       z     vdW  Elec       q    Type
REMARK                         _______ _______ _______ _____ _____    ______ ____
ROOT
ATOM      1  C1  UNL     1     -16.844  69.332 127.469  0.00  0.00    +0.000 C 
ATOM      2  C2  UNL     1     -17.999  69.937 126.708  0.00  0.00    +0.000 C 
ATOM      3  C3  UNL     1     -19.157  69.259 126.706  0.00  0.00    +0.000 C 
ATOM      4  C4  UNL     1     -20.333  69.765 125.997  0.00  0.00    +0.000 C 
ATOM      5  O1  UNL     1     -21.410  69.111 126.009  0.00  0.00    +0.000 OA
ATOM      6  C5  UNL     1     -20.252  71.031 125.274  0.00  0.00    +0.000 C 
ATOM      7  C6  UNL     1     -19.116  71.728 125.257  0.00  0.00    +0.000 C 
ATOM      8  C7  UNL     1     -17.844  71.279 125.966  0.00  0.00    +0.000 C 
ATOM      9  C8  UNL     1     -16.743  71.152 124.895  0.00  0.00    +0.000 C 
ATOM     10  C9  UNL     1     -17.466  72.383 126.973  0.00  0.00    +0.000 C 
ENDROOT
TORSDOF 0
ENDMDL
MODEL 7
REMARK VINA RESULT:      -3.2      2.036      3.176
REMARK  Name = .\Carvone.pdb
REMARK  3 active torsions:
REMARK  status: ('A' for Active; 'I' for Inactive)
REMARK    1  A    between atoms: C1_1  and  C2_2
REMARK    2  A    between atoms: C7_8  and  C8_9
REMARK    3  A    between atoms: C7_8  and  C9_10
REMARK                            x       y       z     vdW  Elec       q    Type
REMARK                         _______ _______ _______ _____ _____    ______ ____
ROOT
ATOM      1  C1  UNL     1     -18.469  69.026 127.655  0.00  0.00    +0.000 C 
ATOM      2  C2  UNL     1     -17.534  69.485 126.563  0.00  0.00    +0.000 C 
ATOM      3  C3  UNL     1     -16.552  68.644 126.200  0.00  0.00    +0.000 C 
ATOM      4  C4  UNL     1     -15.595  69.000 125.151  0.00  0.00    +0.000 C 
ATOM      5  O1  UNL     1     -14.682  68.196 124.827  0.00  0.00    +0.000 OA
ATOM      6  C5  UNL     1     -15.704  70.293 124.481  0.00  0.00    +0.000 C 
ATOM      7  C6  UNL     1     -16.669  71.149 124.818  0.00  0.00    +0.000 C 
ATOM      8  C7  UNL     1     -17.707  70.864 125.897  0.00  0.00    +0.000 C 
ATOM      9  C8  UNL     1     -17.576  71.970 126.963  0.00  0.00    +0.000 C 
ATOM     10  C9  UNL     1     -19.094  70.944 125.231  0.00  0.00    +0.000 C 
ENDROOT
TORSDOF 0
ENDMDL
MODEL 8
REMARK VINA RESULT:      -3.2      1.966      2.720
REMARK  Name = .\Carvone.pdb
REMARK  3 active torsions:
REMARK  status: ('A' for Active; 'I' for Inactive)
REMARK    1  A    between atoms: C1_1  and  C2_2
REMARK    2  A    between atoms: C7_8  and  C8_9
REMARK    3  A    between atoms: C7_8  and  C9_10
REMARK                            x       y       z     vdW  Elec       q    Type
REMARK                         _______ _______ _______ _____ _____    ______ ____
ROOT
ATOM      1  C1  UNL     1     -19.872  68.721 123.383  0.00  0.00    +0.000 C 
ATOM      2  C2  UNL     1     -19.056  69.539 124.354  0.00  0.00    +0.000 C 
ATOM      3  C3  UNL     1     -17.719  69.447 124.264  0.00  0.00    +0.000 C 
ATOM      4  C4  UNL     1     -16.844  70.202 125.163  0.00  0.00    +0.000 C 
ATOM      5  O1  UNL     1     -15.593  70.101 125.060  0.00  0.00    +0.000 OA
ATOM      6  C5  UNL     1     -17.429  71.074 126.178  0.00  0.00    +0.000 C 
ATOM      7  C6  UNL     1     -18.752  71.186 126.292  0.00  0.00    +0.000 C 
ATOM      8  C7  UNL     1     -19.739  70.439 125.402  0.00  0.00    +0.000 C 
ATOM      9  C8  UNL     1     -20.624  69.577 126.323  0.00  0.00    +0.000 C 
ATOM     10  C9  UNL     1     -20.603  71.496 124.688  0.00  0.00    +0.000 C 
ENDROOT
TORSDOF 0
ENDMDL
MODEL 9
REMARK VINA RESULT:      -3.0      2.389      3.790
REMARK  Name = .\Carvone.pdb
REMARK  3 active torsions:
REMARK  status: ('A' for Active; 'I' for Inactive)
REMARK    1  A    between atoms: C1_1  and  C2_2
REMARK    2  A    between atoms: C7_8  and  C8_9
REMARK    3  A    between atoms: C7_8  and  C9_10
REMARK                            x       y       z     vdW  Elec       q    Type
REMARK                         _______ _______ _______ _____ _____    ______ ____
ROOT
ATOM      1  C1  UNL     1     -18.740  71.729 125.378  0.00  0.00    +0.000 C 
ATOM      2  C2  UNL     1     -18.023  70.517 125.921  0.00  0.00    +0.000 C 
ATOM      3  C3  UNL     1     -18.345  70.115 127.161  0.00  0.00    +0.000 C 
ATOM      4  C4  UNL     1     -17.704  68.950 127.772  0.00  0.00    +0.000 C 
ATOM      5  O1  UNL     1     -18.021  68.591 128.937  0.00  0.00    +0.000 OA
ATOM      6  C5  UNL     1     -16.694  68.205 127.026  0.00  0.00    +0.000 C 
ATOM      7  C6  UNL     1     -16.353  68.578 125.793  0.00  0.00    +0.000 C 
ATOM      8  C7  UNL     1     -16.966  69.776 125.077  0.00  0.00    +0.000 C 
ATOM      9  C8  UNL     1     -15.815  70.742 124.731  0.00  0.00    +0.000 C 
ATOM     10  C9  UNL     1     -17.616  69.253 123.781  0.00  0.00    +0.000 C 
ENDROOT
TORSDOF 0
ENDMDL
