MODEL 1
REMARK VINA RESULT:      -4.4      0.000      0.000
REMARK  Name = .\Carvacrol.pdb
REMARK  5 active torsions:
REMARK  status: ('A' for Active; 'I' for Inactive)
REMARK    1  A    between atoms: C1_1  and  C2_2
REMARK    2  A    between atoms: C2_2  and  C3_3
REMARK    3  A    between atoms: C2_2  and  C4_4
REMARK    4  A    between atoms: C6_6  and  O1_11
REMARK    5  A    between atoms: C7_7  and  C10_10
REMARK                            x       y       z     vdW  Elec       q    Type
REMARK                         _______ _______ _______ _____ _____    ______ ____
ROOT
ATOM      1  C4  UNL     1      -7.267  71.804 -46.757  0.00  0.00    +0.000 A 
ATOM      2  C5  UNL     1      -7.033  71.621 -45.384  0.00  0.00    +0.000 A 
ATOM      3  C6  UNL     1      -5.818  71.090 -44.928  0.00  0.00    +0.000 A 
ATOM      4  C7  UNL     1      -4.818  70.733 -45.850  0.00  0.00    +0.000 A 
ATOM      5  C8  UNL     1      -5.049  70.914 -47.222  0.00  0.00    +0.000 A 
ATOM      6  C9  UNL     1      -6.261  71.444 -47.672  0.00  0.00    +0.000 A 
ATOM      7  C10 UNL     1      -3.514  70.162 -45.369  0.00  0.00    +0.000 C 
ENDROOT
BRANCH   1   9
ATOM      8  C1  UNL     1      -9.685  72.187 -46.180  0.00  0.00    +0.000 C 
ATOM      9  C2  UNL     1      -8.587  72.380 -47.233  0.00  0.00    +0.000 C 
ATOM     10  C3  UNL     1      -8.440  73.858 -47.613  0.00  0.00    +0.000 C 
ENDBRANCH   1   9
BRANCH   3  11
ATOM     11  O1  UNL     1      -5.601  70.914 -43.561  0.00  0.00    +0.000 OA
ATOM     12  H14 UNL     1      -5.485  69.992 -43.156  0.00  0.00    +0.000 HD
ENDBRANCH   3  11
TORSDOF 2
ENDMDL
MODEL 2
REMARK VINA RESULT:      -4.3      1.516      4.224
REMARK  Name = .\Carvacrol.pdb
REMARK  5 active torsions:
REMARK  status: ('A' for Active; 'I' for Inactive)
REMARK    1  A    between atoms: C1_1  and  C2_2
REMARK    2  A    between atoms: C2_2  and  C3_3
REMARK    3  A    between atoms: C2_2  and  C4_4
REMARK    4  A    between atoms: C6_6  and  O1_11
REMARK    5  A    between atoms: C7_7  and  C10_10
REMARK                            x       y       z     vdW  Elec       q    Type
REMARK                         _______ _______ _______ _____ _____    ______ ____
ROOT
ATOM      1  C4  UNL     1      -5.680  71.037 -45.737  0.00  0.00    +0.000 A 
ATOM      2  C5  UNL     1      -6.485  71.838 -44.910  0.00  0.00    +0.000 A 
ATOM      3  C6  UNL     1      -7.516  72.619 -45.453  0.00  0.00    +0.000 A 
ATOM      4  C7  UNL     1      -7.753  72.605 -46.839  0.00  0.00    +0.000 A 
ATOM      5  C8  UNL     1      -6.950  71.805 -47.667  0.00  0.00    +0.000 A 
ATOM      6  C9  UNL     1      -5.924  71.028 -47.122  0.00  0.00    +0.000 A 
ATOM      7  C10 UNL     1      -8.855  73.438 -47.428  0.00  0.00    +0.000 C 
ENDROOT
BRANCH   1   9
ATOM      8  C1  UNL     1      -3.806  69.429 -46.217  0.00  0.00    +0.000 C 
ATOM      9  C2  UNL     1      -4.569  70.199 -45.133  0.00  0.00    +0.000 C 
ATOM     10  C3  UNL     1      -3.618  71.062 -44.295  0.00  0.00    +0.000 C 
ENDBRANCH   1   9
BRANCH   3  11
ATOM     11  O1  UNL     1      -8.307  73.410 -44.620  0.00  0.00    +0.000 OA
ATOM     12  H14 UNL     1      -8.248  73.342 -43.610  0.00  0.00    +0.000 HD
ENDBRANCH   3  11
TORSDOF 2
ENDMDL
MODEL 3
REMARK VINA RESULT:      -4.2      1.828      2.400
REMARK  Name = .\Carvacrol.pdb
REMARK  5 active torsions:
REMARK  status: ('A' for Active; 'I' for Inactive)
REMARK    1  A    between atoms: C1_1  and  C2_2
REMARK    2  A    between atoms: C2_2  and  C3_3
REMARK    3  A    between atoms: C2_2  and  C4_4
REMARK    4  A    between atoms: C6_6  and  O1_11
REMARK    5  A    between atoms: C7_7  and  C10_10
REMARK                            x       y       z     vdW  Elec       q    Type
REMARK                         _______ _______ _______ _____ _____    ______ ____
ROOT
ATOM      1  C4  UNL     1      -6.156  71.276 -46.675  0.00  0.00    +0.000 A 
ATOM      2  C5  UNL     1      -4.957  71.619 -47.322  0.00  0.00    +0.000 A 
ATOM      3  C6  UNL     1      -3.718  71.390 -46.704  0.00  0.00    +0.000 A 
ATOM      4  C7  UNL     1      -3.669  70.811 -45.424  0.00  0.00    +0.000 A 
ATOM      5  C8  UNL     1      -4.865  70.468 -44.776  0.00  0.00    +0.000 A 
ATOM      6  C9  UNL     1      -6.096  70.697 -45.395  0.00  0.00    +0.000 A 
ATOM      7  C10 UNL     1      -2.346  70.563 -44.756  0.00  0.00    +0.000 C 
ENDROOT
BRANCH   1   9
ATOM      8  C1  UNL     1      -8.633  70.842 -46.608  0.00  0.00    +0.000 C 
ATOM      9  C2  UNL     1      -7.487  71.531 -47.358  0.00  0.00    +0.000 C 
ATOM     10  C3  UNL     1      -7.751  73.033 -47.511  0.00  0.00    +0.000 C 
ENDBRANCH   1   9
BRANCH   3  11
ATOM     11  O1  UNL     1      -2.536  71.736 -47.359  0.00  0.00    +0.000 OA
ATOM     12  H14 UNL     1      -2.282  72.704 -47.519  0.00  0.00    +0.000 HD
ENDBRANCH   3  11
TORSDOF 2
ENDMDL
MODEL 4
REMARK VINA RESULT:      -4.1      1.898      2.573
REMARK  Name = .\Carvacrol.pdb
REMARK  5 active torsions:
REMARK  status: ('A' for Active; 'I' for Inactive)
REMARK    1  A    between atoms: C1_1  and  C2_2
REMARK    2  A    between atoms: C2_2  and  C3_3
REMARK    3  A    between atoms: C2_2  and  C4_4
REMARK    4  A    between atoms: C6_6  and  O1_11
REMARK    5  A    between atoms: C7_7  and  C10_10
REMARK                            x       y       z     vdW  Elec       q    Type
REMARK                         _______ _______ _______ _____ _____    ______ ____
ROOT
ATOM      1  C4  UNL     1      -6.634  71.447 -45.464  0.00  0.00    +0.000 A 
ATOM      2  C5  UNL     1      -6.657  72.711 -44.850  0.00  0.00    +0.000 A 
ATOM      3  C6  UNL     1      -5.725  73.040 -43.854  0.00  0.00    +0.000 A 
ATOM      4  C7  UNL     1      -4.756  72.102 -43.461  0.00  0.00    +0.000 A 
ATOM      5  C8  UNL     1      -4.731  70.839 -44.073  0.00  0.00    +0.000 A 
ATOM      6  C9  UNL     1      -5.660  70.514 -45.065  0.00  0.00    +0.000 A 
ATOM      7  C10 UNL     1      -3.755  72.447 -42.396  0.00  0.00    +0.000 C 
ENDROOT
BRANCH   1   9
ATOM      8  C1  UNL     1      -8.904  71.978 -46.409  0.00  0.00    +0.000 C 
ATOM      9  C2  UNL     1      -7.649  71.107 -46.539  0.00  0.00    +0.000 C 
ATOM     10  C3  UNL     1      -7.034  71.229 -47.939  0.00  0.00    +0.000 C 
ENDBRANCH   1   9
BRANCH   3  11
ATOM     11  O1  UNL     1      -5.762  74.299 -43.253  0.00  0.00    +0.000 OA
ATOM     12  H14 UNL     1      -4.913  74.789 -42.996  0.00  0.00    +0.000 HD
ENDBRANCH   3  11
TORSDOF 2
ENDMDL
MODEL 5
REMARK VINA RESULT:      -4.1      1.883      4.457
REMARK  Name = .\Carvacrol.pdb
REMARK  5 active torsions:
REMARK  status: ('A' for Active; 'I' for Inactive)
REMARK    1  A    between atoms: C1_1  and  C2_2
REMARK    2  A    between atoms: C2_2  and  C3_3
REMARK    3  A    between atoms: C2_2  and  C4_4
REMARK    4  A    between atoms: C6_6  and  O1_11
REMARK    5  A    between atoms: C7_7  and  C10_10
REMARK                            x       y       z     vdW  Elec       q    Type
REMARK                         _______ _______ _______ _____ _____    ______ ____
ROOT
ATOM      1  C4  UNL     1      -6.450  71.405 -46.670  0.00  0.00    +0.000 A 
ATOM      2  C5  UNL     1      -7.731  70.991 -46.268  0.00  0.00    +0.000 A 
ATOM      3  C6  UNL     1      -8.861  71.765 -46.572  0.00  0.00    +0.000 A 
ATOM      4  C7  UNL     1      -8.718  72.968 -47.285  0.00  0.00    +0.000 A 
ATOM      5  C8  UNL     1      -7.439  73.382 -47.688  0.00  0.00    +0.000 A 
ATOM      6  C9  UNL     1      -6.316  72.609 -47.384  0.00  0.00    +0.000 A 
ATOM      7  C10 UNL     1      -9.924  73.801 -47.614  0.00  0.00    +0.000 C 
ENDROOT
BRANCH   1   9
ATOM      8  C1  UNL     1      -3.942  71.238 -46.787  0.00  0.00    +0.000 C 
ATOM      9  C2  UNL     1      -5.238  70.556 -46.334  0.00  0.00    +0.000 C 
ATOM     10  C3  UNL     1      -5.193  70.224 -44.837  0.00  0.00    +0.000 C 
ENDBRANCH   1   9
BRANCH   3  11
ATOM     11  O1  UNL     1     -10.127  71.342 -46.165  0.00  0.00    +0.000 OA
ATOM     12  H14 UNL     1     -10.540  70.486 -46.517  0.00  0.00    +0.000 HD
ENDBRANCH   3  11
TORSDOF 2
ENDMDL
MODEL 6
REMARK VINA RESULT:      -4.1      2.855      4.640
REMARK  Name = .\Carvacrol.pdb
REMARK  5 active torsions:
REMARK  status: ('A' for Active; 'I' for Inactive)
REMARK    1  A    between atoms: C1_1  and  C2_2
REMARK    2  A    between atoms: C2_2  and  C3_3
REMARK    3  A    between atoms: C2_2  and  C4_4
REMARK    4  A    between atoms: C6_6  and  O1_11
REMARK    5  A    between atoms: C7_7  and  C10_10
REMARK                            x       y       z     vdW  Elec       q    Type
REMARK                         _______ _______ _______ _____ _____    ______ ____
ROOT
ATOM      1  C4  UNL     1      -4.481  71.235 -46.551  0.00  0.00    +0.000 A 
ATOM      2  C5  UNL     1      -3.458  72.111 -46.953  0.00  0.00    +0.000 A 
ATOM      3  C6  UNL     1      -3.640  72.970 -48.046  0.00  0.00    +0.000 A 
ATOM      4  C7  UNL     1      -4.855  72.961 -48.753  0.00  0.00    +0.000 A 
ATOM      5  C8  UNL     1      -5.878  72.086 -48.353  0.00  0.00    +0.000 A 
ATOM      6  C9  UNL     1      -5.693  71.232 -47.264  0.00  0.00    +0.000 A 
ATOM      7  C10 UNL     1      -5.057  73.878 -49.925  0.00  0.00    +0.000 C 
ENDROOT
BRANCH   1   9
ATOM      8  C1  UNL     1      -5.556  70.152 -44.551  0.00  0.00    +0.000 C 
ATOM      9  C2  UNL     1      -4.267  70.311 -45.366  0.00  0.00    +0.000 C 
ATOM     10  C3  UNL     1      -3.726  68.949 -45.816  0.00  0.00    +0.000 C 
ENDBRANCH   1   9
BRANCH   3  11
ATOM     11  O1  UNL     1      -2.615  73.834 -48.434  0.00  0.00    +0.000 OA
ATOM     12  H14 UNL     1      -2.779  74.597 -49.081  0.00  0.00    +0.000 HD
ENDBRANCH   3  11
TORSDOF 2
ENDMDL
MODEL 7
REMARK VINA RESULT:      -4.0      2.024      4.982
REMARK  Name = .\Carvacrol.pdb
REMARK  5 active torsions:
REMARK  status: ('A' for Active; 'I' for Inactive)
REMARK    1  A    between atoms: C1_1  and  C2_2
REMARK    2  A    between atoms: C2_2  and  C3_3
REMARK    3  A    between atoms: C2_2  and  C4_4
REMARK    4  A    between atoms: C6_6  and  O1_11
REMARK    5  A    between atoms: C7_7  and  C10_10
REMARK                            x       y       z     vdW  Elec       q    Type
REMARK                         _______ _______ _______ _____ _____    ______ ____
ROOT
ATOM      1  C4  UNL     1      -3.841  70.748 -45.821  0.00  0.00    +0.000 A 
ATOM      2  C5  UNL     1      -4.372  71.081 -47.079  0.00  0.00    +0.000 A 
ATOM      3  C6  UNL     1      -5.755  71.232 -47.255  0.00  0.00    +0.000 A 
ATOM      4  C7  UNL     1      -6.626  71.050 -46.167  0.00  0.00    +0.000 A 
ATOM      5  C8  UNL     1      -6.098  70.718 -44.909  0.00  0.00    +0.000 A 
ATOM      6  C9  UNL     1      -4.719  70.569 -44.738  0.00  0.00    +0.000 A 
ATOM      7  C10 UNL     1      -8.108  71.211 -46.348  0.00  0.00    +0.000 C 
ENDROOT
BRANCH   1   9
ATOM      8  C1  UNL     1      -1.577  71.304 -46.768  0.00  0.00    +0.000 C 
ATOM      9  C2  UNL     1      -2.342  70.588 -45.648  0.00  0.00    +0.000 C 
ATOM     10  C3  UNL     1      -1.889  71.079 -44.268  0.00  0.00    +0.000 C 
ENDBRANCH   1   9
BRANCH   3  11
ATOM     11  O1  UNL     1      -6.268  71.562 -48.510  0.00  0.00    +0.000 OA
ATOM     12  H14 UNL     1      -5.909  72.348 -49.041  0.00  0.00    +0.000 HD
ENDBRANCH   3  11
TORSDOF 2
ENDMDL
MODEL 8
REMARK VINA RESULT:      -4.0      1.960      2.580
REMARK  Name = .\Carvacrol.pdb
REMARK  5 active torsions:
REMARK  status: ('A' for Active; 'I' for Inactive)
REMARK    1  A    between atoms: C1_1  and  C2_2
REMARK    2  A    between atoms: C2_2  and  C3_3
REMARK    3  A    between atoms: C2_2  and  C4_4
REMARK    4  A    between atoms: C6_6  and  O1_11
REMARK    5  A    between atoms: C7_7  and  C10_10
REMARK                            x       y       z     vdW  Elec       q    Type
REMARK                         _______ _______ _______ _____ _____    ______ ____
ROOT
ATOM      1  C4  UNL     1      -6.555  71.620 -46.353  0.00  0.00    +0.000 A 
ATOM      2  C5  UNL     1      -5.709  72.280 -47.261  0.00  0.00    +0.000 A 
ATOM      3  C6  UNL     1      -4.347  71.955 -47.337  0.00  0.00    +0.000 A 
ATOM      4  C7  UNL     1      -3.815  70.960 -46.498  0.00  0.00    +0.000 A 
ATOM      5  C8  UNL     1      -4.657  70.299 -45.591  0.00  0.00    +0.000 A 
ATOM      6  C9  UNL     1      -6.014  70.625 -45.519  0.00  0.00    +0.000 A 
ATOM      7  C10 UNL     1      -2.357  70.607 -46.574  0.00  0.00    +0.000 C 
ENDROOT
BRANCH   1   9
ATOM      8  C1  UNL     1      -8.348  73.162 -47.211  0.00  0.00    +0.000 C 
ATOM      9  C2  UNL     1      -8.027  71.983 -46.284  0.00  0.00    +0.000 C 
ATOM     10  C3  UNL     1      -8.911  70.772 -46.603  0.00  0.00    +0.000 C 
ENDBRANCH   1   9
BRANCH   3  11
ATOM     11  O1  UNL     1      -3.520  72.620 -48.242  0.00  0.00    +0.000 OA
ATOM     12  H14 UNL     1      -2.523  72.713 -48.082  0.00  0.00    +0.000 HD
ENDBRANCH   3  11
TORSDOF 2
ENDMDL
MODEL 9
REMARK VINA RESULT:      -4.0      1.398      2.227
REMARK  Name = .\Carvacrol.pdb
REMARK  5 active torsions:
REMARK  status: ('A' for Active; 'I' for Inactive)
REMARK    1  A    between atoms: C1_1  and  C2_2
REMARK    2  A    between atoms: C2_2  and  C3_3
REMARK    3  A    between atoms: C2_2  and  C4_4
REMARK    4  A    between atoms: C6_6  and  O1_11
REMARK    5  A    between atoms: C7_7  and  C10_10
REMARK                            x       y       z     vdW  Elec       q    Type
REMARK                         _______ _______ _______ _____ _____    ______ ____
ROOT
ATOM      1  C4  UNL     1      -5.459  71.017 -46.105  0.00  0.00    +0.000 A 
ATOM      2  C5  UNL     1      -5.507  71.395 -44.752  0.00  0.00    +0.000 A 
ATOM      3  C6  UNL     1      -4.335  71.457 -43.984  0.00  0.00    +0.000 A 
ATOM      4  C7  UNL     1      -3.096  71.138 -44.567  0.00  0.00    +0.000 A 
ATOM      5  C8  UNL     1      -3.046  70.759 -45.917  0.00  0.00    +0.000 A 
ATOM      6  C9  UNL     1      -4.215  70.700 -46.679  0.00  0.00    +0.000 A 
ATOM      7  C10 UNL     1      -1.837  71.201 -43.750  0.00  0.00    +0.000 C 
ENDROOT
BRANCH   1   9
ATOM      8  C1  UNL     1      -7.900  71.624 -46.178  0.00  0.00    +0.000 C 
ATOM      9  C2  UNL     1      -6.737  70.956 -46.921  0.00  0.00    +0.000 C 
ATOM     10  C3  UNL     1      -6.537  71.578 -48.309  0.00  0.00    +0.000 C 
ENDBRANCH   1   9
BRANCH   3  11
ATOM     11  O1  UNL     1      -4.398  71.834 -42.642  0.00  0.00    +0.000 OA
ATOM     12  H14 UNL     1      -4.204  72.784 -42.347  0.00  0.00    +0.000 HD
ENDBRANCH   3  11
TORSDOF 2
ENDMDL
