MODEL 1
REMARK VINA RESULT:      -4.5      0.000      0.000
REMARK  Name = .\Carvone.pdb
REMARK  3 active torsions:
REMARK  status: ('A' for Active; 'I' for Inactive)
REMARK    1  A    between atoms: C1_1  and  C2_2
REMARK    2  A    between atoms: C7_8  and  C8_9
REMARK    3  A    between atoms: C7_8  and  C9_10
REMARK                            x       y       z     vdW  Elec       q    Type
REMARK                         _______ _______ _______ _____ _____    ______ ____
ROOT
ATOM      1  C1  UNL     1     -10.501  77.835  73.790  0.00  0.00    +0.000 C 
ATOM      2  C2  UNL     1     -10.233  77.521  72.338  0.00  0.00    +0.000 C 
ATOM      3  C3  UNL     1      -9.042  77.888  71.838  0.00  0.00    +0.000 C 
ATOM      4  C4  UNL     1      -8.691  77.627  70.441  0.00  0.00    +0.000 C 
ATOM      5  O1  UNL     1      -7.568  77.980  69.994  0.00  0.00    +0.000 OA
ATOM      6  C5  UNL     1      -9.649  76.955  69.568  0.00  0.00    +0.000 C 
ATOM      7  C6  UNL     1     -10.839  76.577  70.035  0.00  0.00    +0.000 C 
ATOM      8  C7  UNL     1     -11.290  76.808  71.473  0.00  0.00    +0.000 C 
ATOM      9  C8  UNL     1     -12.573  77.661  71.419  0.00  0.00    +0.000 C 
ATOM     10  C9  UNL     1     -11.607  75.427  72.080  0.00  0.00    +0.000 C 
ENDROOT
TORSDOF 0
ENDMDL
MODEL 2
REMARK VINA RESULT:      -4.3      1.270      2.712
REMARK  Name = .\Carvone.pdb
REMARK  3 active torsions:
REMARK  status: ('A' for Active; 'I' for Inactive)
REMARK    1  A    between atoms: C1_1  and  C2_2
REMARK    2  A    between atoms: C7_8  and  C8_9
REMARK    3  A    between atoms: C7_8  and  C9_10
REMARK                            x       y       z     vdW  Elec       q    Type
REMARK                         _______ _______ _______ _____ _____    ______ ____
ROOT
ATOM      1  C1  UNL     1     -13.679  76.790  70.349  0.00  0.00    +0.000 C 
ATOM      2  C2  UNL     1     -12.191  76.903  70.572  0.00  0.00    +0.000 C 
ATOM      3  C3  UNL     1     -11.398  76.823  69.491  0.00  0.00    +0.000 C 
ATOM      4  C4  UNL     1      -9.943  76.922  69.607  0.00  0.00    +0.000 C 
ATOM      5  O1  UNL     1      -9.219  76.845  68.579  0.00  0.00    +0.000 OA
ATOM      6  C5  UNL     1      -9.333  77.111  70.920  0.00  0.00    +0.000 C 
ATOM      7  C6  UNL     1     -10.092  77.194  72.012  0.00  0.00    +0.000 C 
ATOM      8  C7  UNL     1     -11.614  77.102  71.987  0.00  0.00    +0.000 C 
ATOM      9  C8  UNL     1     -12.015  75.910  72.879  0.00  0.00    +0.000 C 
ATOM     10  C9  UNL     1     -12.162  78.411  72.588  0.00  0.00    +0.000 C 
ENDROOT
TORSDOF 0
ENDMDL
MODEL 3
REMARK VINA RESULT:      -4.0      1.401      2.803
REMARK  Name = .\Carvone.pdb
REMARK  3 active torsions:
REMARK  status: ('A' for Active; 'I' for Inactive)
REMARK    1  A    between atoms: C1_1  and  C2_2
REMARK    2  A    between atoms: C7_8  and  C8_9
REMARK    3  A    between atoms: C7_8  and  C9_10
REMARK                            x       y       z     vdW  Elec       q    Type
REMARK                         _______ _______ _______ _____ _____    ______ ____
ROOT
ATOM      1  C1  UNL     1     -11.577  76.657  72.950  0.00  0.00    +0.000 C 
ATOM      2  C2  UNL     1     -10.402  77.081  72.103  0.00  0.00    +0.000 C 
ATOM      3  C3  UNL     1     -10.310  76.553  70.872  0.00  0.00    +0.000 C 
ATOM      4  C4  UNL     1      -9.206  76.903  69.976  0.00  0.00    +0.000 C 
ATOM      5  O1  UNL     1      -9.139  76.396  68.825  0.00  0.00    +0.000 OA
ATOM      6  C5  UNL     1      -8.182  77.843  70.423  0.00  0.00    +0.000 C 
ATOM      7  C6  UNL     1      -8.246  78.384  71.640  0.00  0.00    +0.000 C 
ATOM      8  C7  UNL     1      -9.357  78.079  72.638  0.00  0.00    +0.000 C 
ATOM      9  C8  UNL     1      -8.691  77.498  73.901  0.00  0.00    +0.000 C 
ATOM     10  C9  UNL     1     -10.047  79.414  72.979  0.00  0.00    +0.000 C 
ENDROOT
TORSDOF 0
ENDMDL
MODEL 4
REMARK VINA RESULT:      -3.9      1.276      1.523
REMARK  Name = .\Carvone.pdb
REMARK  3 active torsions:
REMARK  status: ('A' for Active; 'I' for Inactive)
REMARK    1  A    between atoms: C1_1  and  C2_2
REMARK    2  A    between atoms: C7_8  and  C8_9
REMARK    3  A    between atoms: C7_8  and  C9_10
REMARK                            x       y       z     vdW  Elec       q    Type
REMARK                         _______ _______ _______ _____ _____    ______ ____
ROOT
ATOM      1  C1  UNL     1     -10.118  77.474  73.996  0.00  0.00    +0.000 C 
ATOM      2  C2  UNL     1     -10.610  77.214  72.593  0.00  0.00    +0.000 C 
ATOM      3  C3  UNL     1      -9.684  76.986  71.648  0.00  0.00    +0.000 C 
ATOM      4  C4  UNL     1     -10.064  76.724  70.259  0.00  0.00    +0.000 C 
ATOM      5  O1  UNL     1      -9.178  76.512  69.389  0.00  0.00    +0.000 OA
ATOM      6  C5  UNL     1     -11.476  76.709  69.886  0.00  0.00    +0.000 C 
ATOM      7  C6  UNL     1     -12.419  76.932  70.801  0.00  0.00    +0.000 C 
ATOM      8  C7  UNL     1     -12.117  77.213  72.269  0.00  0.00    +0.000 C 
ATOM      9  C8  UNL     1     -12.717  78.593  72.604  0.00  0.00    +0.000 C 
ATOM     10  C9  UNL     1     -12.822  76.122  73.098  0.00  0.00    +0.000 C 
ENDROOT
TORSDOF 0
ENDMDL
MODEL 5
REMARK VINA RESULT:      -3.8      1.831      2.652
REMARK  Name = .\Carvone.pdb
REMARK  3 active torsions:
REMARK  status: ('A' for Active; 'I' for Inactive)
REMARK    1  A    between atoms: C1_1  and  C2_2
REMARK    2  A    between atoms: C7_8  and  C8_9
REMARK    3  A    between atoms: C7_8  and  C9_10
REMARK                            x       y       z     vdW  Elec       q    Type
REMARK                         _______ _______ _______ _____ _____    ______ ____
ROOT
ATOM      1  C1  UNL     1     -13.786  78.226  72.087  0.00  0.00    +0.000 C 
ATOM      2  C2  UNL     1     -12.308  77.931  72.166  0.00  0.00    +0.000 C 
ATOM      3  C3  UNL     1     -11.551  78.770  72.890  0.00  0.00    +0.000 C 
ATOM      4  C4  UNL     1     -10.107  78.567  73.026  0.00  0.00    +0.000 C 
ATOM      5  O1  UNL     1      -9.417  79.367  73.711  0.00  0.00    +0.000 OA
ATOM      6  C5  UNL     1      -9.472  77.432  72.363  0.00  0.00    +0.000 C 
ATOM      7  C6  UNL     1     -10.196  76.581  71.637  0.00  0.00    +0.000 C 
ATOM      8  C7  UNL     1     -11.702  76.714  71.441  0.00  0.00    +0.000 C 
ATOM      9  C8  UNL     1     -11.958  76.837  69.926  0.00  0.00    +0.000 C 
ATOM     10  C9  UNL     1     -12.350  75.421  71.975  0.00  0.00    +0.000 C 
ENDROOT
TORSDOF 0
ENDMDL
MODEL 6
REMARK VINA RESULT:      -3.8      1.959      3.150
REMARK  Name = .\Carvone.pdb
REMARK  3 active torsions:
REMARK  status: ('A' for Active; 'I' for Inactive)
REMARK    1  A    between atoms: C1_1  and  C2_2
REMARK    2  A    between atoms: C7_8  and  C8_9
REMARK    3  A    between atoms: C7_8  and  C9_10
REMARK                            x       y       z     vdW  Elec       q    Type
REMARK                         _______ _______ _______ _____ _____    ______ ____
ROOT
ATOM      1  C1  UNL     1     -12.075  78.611  74.036  0.00  0.00    +0.000 C 
ATOM      2  C2  UNL     1     -11.390  77.992  72.841  0.00  0.00    +0.000 C 
ATOM      3  C3  UNL     1     -12.173  77.494  71.872  0.00  0.00    +0.000 C 
ATOM      4  C4  UNL     1     -11.600  76.875  70.675  0.00  0.00    +0.000 C 
ATOM      5  O1  UNL     1     -12.355  76.415  69.778  0.00  0.00    +0.000 OA
ATOM      6  C5  UNL     1     -10.150  76.794  70.526  0.00  0.00    +0.000 C 
ATOM      7  C6  UNL     1      -9.346  77.280  71.471  0.00  0.00    +0.000 C 
ATOM      8  C7  UNL     1      -9.852  77.940  72.749  0.00  0.00    +0.000 C 
ATOM      9  C8  UNL     1      -9.292  77.132  73.935  0.00  0.00    +0.000 C 
ATOM     10  C9  UNL     1      -9.285  79.373  72.780  0.00  0.00    +0.000 C 
ENDROOT
TORSDOF 0
ENDMDL
MODEL 7
REMARK VINA RESULT:      -3.7      0.969      1.118
REMARK  Name = .\Carvone.pdb
REMARK  3 active torsions:
REMARK  status: ('A' for Active; 'I' for Inactive)
REMARK    1  A    between atoms: C1_1  and  C2_2
REMARK    2  A    between atoms: C7_8  and  C8_9
REMARK    3  A    between atoms: C7_8  and  C9_10
REMARK                            x       y       z     vdW  Elec       q    Type
REMARK                         _______ _______ _______ _____ _____    ______ ____
ROOT
ATOM      1  C1  UNL     1     -11.740  78.042  73.808  0.00  0.00    +0.000 C 
ATOM      2  C2  UNL     1     -10.771  77.792  72.677  0.00  0.00    +0.000 C 
ATOM      3  C3  UNL     1      -9.619  78.481  72.689  0.00  0.00    +0.000 C 
ATOM      4  C4  UNL     1      -8.618  78.306  71.636  0.00  0.00    +0.000 C 
ATOM      5  O1  UNL     1      -7.544  78.963  71.668  0.00  0.00    +0.000 OA
ATOM      6  C5  UNL     1      -8.870  77.367  70.547  0.00  0.00    +0.000 C 
ATOM      7  C6  UNL     1     -10.004  76.668  70.507  0.00  0.00    +0.000 C 
ATOM      8  C7  UNL     1     -11.102  76.784  71.559  0.00  0.00    +0.000 C 
ATOM      9  C8  UNL     1     -12.388  77.225  70.832  0.00  0.00    +0.000 C 
ATOM     10  C9  UNL     1     -11.302  75.384  72.169  0.00  0.00    +0.000 C 
ENDROOT
TORSDOF 0
ENDMDL
MODEL 8
REMARK VINA RESULT:      -3.6      2.001      2.628
REMARK  Name = .\Carvone.pdb
REMARK  3 active torsions:
REMARK  status: ('A' for Active; 'I' for Inactive)
REMARK    1  A    between atoms: C1_1  and  C2_2
REMARK    2  A    between atoms: C7_8  and  C8_9
REMARK    3  A    between atoms: C7_8  and  C9_10
REMARK                            x       y       z     vdW  Elec       q    Type
REMARK                         _______ _______ _______ _____ _____    ______ ____
ROOT
ATOM      1  C1  UNL     1     -13.936  76.234  73.706  0.00  0.00    +0.000 C 
ATOM      2  C2  UNL     1     -12.935  76.423  72.592  0.00  0.00    +0.000 C 
ATOM      3  C3  UNL     1     -11.659  76.652  72.943  0.00  0.00    +0.000 C 
ATOM      4  C4  UNL     1     -10.617  76.848  71.934  0.00  0.00    +0.000 C 
ATOM      5  O1  UNL     1      -9.427  77.061  72.286  0.00  0.00    +0.000 OA
ATOM      6  C5  UNL     1     -10.964  76.796  70.517  0.00  0.00    +0.000 C 
ATOM      7  C6  UNL     1     -12.221  76.570  70.136  0.00  0.00    +0.000 C 
ATOM      8  C7  UNL     1     -13.370  76.355  71.115  0.00  0.00    +0.000 C 
ATOM      9  C8  UNL     1     -14.420  77.448  70.836  0.00  0.00    +0.000 C 
ATOM     10  C9  UNL     1     -13.971  74.967  70.819  0.00  0.00    +0.000 C 
ENDROOT
TORSDOF 0
ENDMDL
MODEL 9
REMARK VINA RESULT:      -3.6      2.292      3.496
REMARK  Name = .\Carvone.pdb
REMARK  3 active torsions:
REMARK  status: ('A' for Active; 'I' for Inactive)
REMARK    1  A    between atoms: C1_1  and  C2_2
REMARK    2  A    between atoms: C7_8  and  C8_9
REMARK    3  A    between atoms: C7_8  and  C9_10
REMARK                            x       y       z     vdW  Elec       q    Type
REMARK                         _______ _______ _______ _____ _____    ______ ____
ROOT
ATOM      1  C1  UNL     1     -10.607  79.990  73.995  0.00  0.00    +0.000 C 
ATOM      2  C2  UNL     1     -10.786  78.802  73.081  0.00  0.00    +0.000 C 
ATOM      3  C3  UNL     1     -12.005  78.610  72.552  0.00  0.00    +0.000 C 
ATOM      4  C4  UNL     1     -12.275  77.486  71.654  0.00  0.00    +0.000 C 
ATOM      5  O1  UNL     1     -13.426  77.326  71.169  0.00  0.00    +0.000 OA
ATOM      6  C5  UNL     1     -11.204  76.551  71.323  0.00  0.00    +0.000 C 
ATOM      7  C6  UNL     1      -9.983  76.715  71.832  0.00  0.00    +0.000 C 
ATOM      8  C7  UNL     1      -9.610  77.854  72.773  0.00  0.00    +0.000 C 
ATOM      9  C8  UNL     1      -9.105  77.219  74.084  0.00  0.00    +0.000 C 
ATOM     10  C9  UNL     1      -8.470  78.647  72.105  0.00  0.00    +0.000 C 
ENDROOT
TORSDOF 0
ENDMDL
