MODEL 1
REMARK VINA RESULT:      -5.8      0.000      0.000
REMARK  Name = .\Carvone.pdb
REMARK  3 active torsions:
REMARK  status: ('A' for Active; 'I' for Inactive)
REMARK    1  A    between atoms: C1_1  and  C2_2
REMARK    2  A    between atoms: C7_8  and  C8_9
REMARK    3  A    between atoms: C7_8  and  C9_10
REMARK                            x       y       z     vdW  Elec       q    Type
REMARK                         _______ _______ _______ _____ _____    ______ ____
ROOT
ATOM      1  C1  UNL     1       1.376  79.801 102.970  0.00  0.00    +0.000 C 
ATOM      2  C2  UNL     1       1.193  80.411 104.338  0.00  0.00    +0.000 C 
ATOM      3  C3  UNL     1       0.167  81.261 104.501  0.00  0.00    +0.000 C 
ATOM      4  C4  UNL     1      -0.091  81.902 105.792  0.00  0.00    +0.000 C 
ATOM      5  O1  UNL     1      -1.060  82.697 105.921  0.00  0.00    +0.000 OA
ATOM      6  C5  UNL     1       0.779  81.617 106.928  0.00  0.00    +0.000 C 
ATOM      7  C6  UNL     1       1.806  80.776 106.799  0.00  0.00    +0.000 C 
ATOM      8  C7  UNL     1       2.150  80.064 105.496  0.00  0.00    +0.000 C 
ATOM      9  C8  UNL     1       3.587  80.474 105.116  0.00  0.00    +0.000 C 
ATOM     10  C9  UNL     1       2.096  78.549 105.773  0.00  0.00    +0.000 C 
ENDROOT
TORSDOF 0
ENDMDL
MODEL 2
REMARK VINA RESULT:      -5.3      2.433      3.607
REMARK  Name = .\Carvone.pdb
REMARK  3 active torsions:
REMARK  status: ('A' for Active; 'I' for Inactive)
REMARK    1  A    between atoms: C1_1  and  C2_2
REMARK    2  A    between atoms: C7_8  and  C8_9
REMARK    3  A    between atoms: C7_8  and  C9_10
REMARK                            x       y       z     vdW  Elec       q    Type
REMARK                         _______ _______ _______ _____ _____    ______ ____
ROOT
ATOM      1  C1  UNL     1       0.276  81.417 104.204  0.00  0.00    +0.000 C 
ATOM      2  C2  UNL     1       0.843  80.036 104.426  0.00  0.00    +0.000 C 
ATOM      3  C3  UNL     1       0.570  79.102 103.501  0.00  0.00    +0.000 C 
ATOM      4  C4  UNL     1       1.075  77.734 103.630  0.00  0.00    +0.000 C 
ATOM      5  O1  UNL     1       0.807  76.875 102.750  0.00  0.00    +0.000 OA
ATOM      6  C5  UNL     1       1.892  77.371 104.784  0.00  0.00    +0.000 C 
ATOM      7  C6  UNL     1       2.181  78.275 105.719  0.00  0.00    +0.000 C 
ATOM      8  C7  UNL     1       1.699  79.721 105.668  0.00  0.00    +0.000 C 
ATOM      9  C8  UNL     1       0.869  79.972 106.943  0.00  0.00    +0.000 C 
ATOM     10  C9  UNL     1       2.949  80.621 105.674  0.00  0.00    +0.000 C 
ENDROOT
TORSDOF 0
ENDMDL
MODEL 3
REMARK VINA RESULT:      -5.3      1.788      3.236
REMARK  Name = .\Carvone.pdb
REMARK  3 active torsions:
REMARK  status: ('A' for Active; 'I' for Inactive)
REMARK    1  A    between atoms: C1_1  and  C2_2
REMARK    2  A    between atoms: C7_8  and  C8_9
REMARK    3  A    between atoms: C7_8  and  C9_10
REMARK                            x       y       z     vdW  Elec       q    Type
REMARK                         _______ _______ _______ _____ _____    ______ ____
ROOT
ATOM      1  C1  UNL     1      -0.812  82.482 106.234  0.00  0.00    +0.000 C 
ATOM      2  C2  UNL     1       0.233  81.509 105.745  0.00  0.00    +0.000 C 
ATOM      3  C3  UNL     1       0.395  81.396 104.417  0.00  0.00    +0.000 C 
ATOM      4  C4  UNL     1       1.384  80.479 103.847  0.00  0.00    +0.000 C 
ATOM      5  O1  UNL     1       1.519  80.390 102.598  0.00  0.00    +0.000 OA
ATOM      6  C5  UNL     1       2.214  79.668 104.734  0.00  0.00    +0.000 C 
ATOM      7  C6  UNL     1       2.077  79.758 106.057  0.00  0.00    +0.000 C 
ATOM      8  C7  UNL     1       1.075  80.684 106.737  0.00  0.00    +0.000 C 
ATOM      9  C8  UNL     1       0.145  79.802 107.593  0.00  0.00    +0.000 C 
ATOM     10  C9  UNL     1       1.876  81.635 107.649  0.00  0.00    +0.000 C 
ENDROOT
TORSDOF 0
ENDMDL
MODEL 4
REMARK VINA RESULT:      -5.1      1.492      3.103
REMARK  Name = .\Carvone.pdb
REMARK  3 active torsions:
REMARK  status: ('A' for Active; 'I' for Inactive)
REMARK    1  A    between atoms: C1_1  and  C2_2
REMARK    2  A    between atoms: C7_8  and  C8_9
REMARK    3  A    between atoms: C7_8  and  C9_10
REMARK                            x       y       z     vdW  Elec       q    Type
REMARK                         _______ _______ _______ _____ _____    ______ ____
ROOT
ATOM      1  C1  UNL     1       2.122  77.301 105.479  0.00  0.00    +0.000 C 
ATOM      2  C2  UNL     1       1.589  78.579 104.880  0.00  0.00    +0.000 C 
ATOM      3  C3  UNL     1       1.370  79.607 105.716  0.00  0.00    +0.000 C 
ATOM      4  C4  UNL     1       0.854  80.887 105.228  0.00  0.00    +0.000 C 
ATOM      5  O1  UNL     1       0.657  81.837 106.031  0.00  0.00    +0.000 OA
ATOM      6  C5  UNL     1       0.570  81.058 103.806  0.00  0.00    +0.000 C 
ATOM      7  C6  UNL     1       0.777  80.057 102.951  0.00  0.00    +0.000 C 
ATOM      8  C7  UNL     1       1.311  78.691 103.368  0.00  0.00    +0.000 C 
ATOM      9  C8  UNL     1       0.256  77.643 102.960  0.00  0.00    +0.000 C 
ATOM     10  C9  UNL     1       2.616  78.450 102.585  0.00  0.00    +0.000 C 
ENDROOT
TORSDOF 0
ENDMDL
MODEL 5
REMARK VINA RESULT:      -5.0      4.117      5.579
REMARK  Name = .\Carvone.pdb
REMARK  3 active torsions:
REMARK  status: ('A' for Active; 'I' for Inactive)
REMARK    1  A    between atoms: C1_1  and  C2_2
REMARK    2  A    between atoms: C7_8  and  C8_9
REMARK    3  A    between atoms: C7_8  and  C9_10
REMARK                            x       y       z     vdW  Elec       q    Type
REMARK                         _______ _______ _______ _____ _____    ______ ____
ROOT
ATOM      1  C1  UNL     1       0.904  79.162 103.035  0.00  0.00    +0.000 C 
ATOM      2  C2  UNL     1       1.898  78.026 103.014  0.00  0.00    +0.000 C 
ATOM      3  C3  UNL     1       2.841  78.050 102.058  0.00  0.00    +0.000 C 
ATOM      4  C4  UNL     1       3.848  76.993 101.957  0.00  0.00    +0.000 C 
ATOM      5  O1  UNL     1       4.723  77.036 101.053  0.00  0.00    +0.000 OA
ATOM      6  C5  UNL     1       3.833  75.887 102.910  0.00  0.00    +0.000 C 
ATOM      7  C6  UNL     1       2.910  75.834 103.871  0.00  0.00    +0.000 C 
ATOM      8  C7  UNL     1       1.825  76.889 104.052  0.00  0.00    +0.000 C 
ATOM      9  C8  UNL     1       0.465  76.171 103.935  0.00  0.00    +0.000 C 
ATOM     10  C9  UNL     1       1.985  77.473 105.468  0.00  0.00    +0.000 C 
ENDROOT
TORSDOF 0
ENDMDL
MODEL 6
REMARK VINA RESULT:      -5.0      3.057      4.450
REMARK  Name = .\Carvone.pdb
REMARK  3 active torsions:
REMARK  status: ('A' for Active; 'I' for Inactive)
REMARK    1  A    between atoms: C1_1  and  C2_2
REMARK    2  A    between atoms: C7_8  and  C8_9
REMARK    3  A    between atoms: C7_8  and  C9_10
REMARK                            x       y       z     vdW  Elec       q    Type
REMARK                         _______ _______ _______ _____ _____    ______ ____
ROOT
ATOM      1  C1  UNL     1       4.120  80.087 105.083  0.00  0.00    +0.000 C 
ATOM      2  C2  UNL     1       3.086  79.294 104.321  0.00  0.00    +0.000 C 
ATOM      3  C3  UNL     1       3.530  78.467 103.360  0.00  0.00    +0.000 C 
ATOM      4  C4  UNL     1       2.603  77.657 102.568  0.00  0.00    +0.000 C 
ATOM      5  O1  UNL     1       3.042  76.888 101.672  0.00  0.00    +0.000 OA
ATOM      6  C5  UNL     1       1.168  77.744 102.820  0.00  0.00    +0.000 C 
ATOM      7  C6  UNL     1       0.697  78.555 103.767  0.00  0.00    +0.000 C 
ATOM      8  C7  UNL     1       1.585  79.434 104.640  0.00  0.00    +0.000 C 
ATOM      9  C8  UNL     1       1.145  80.895 104.416  0.00  0.00    +0.000 C 
ATOM     10  C9  UNL     1       1.330  79.032 106.106  0.00  0.00    +0.000 C 
ENDROOT
TORSDOF 0
ENDMDL
MODEL 7
REMARK VINA RESULT:      -4.9      2.014      2.866
REMARK  Name = .\Carvone.pdb
REMARK  3 active torsions:
REMARK  status: ('A' for Active; 'I' for Inactive)
REMARK    1  A    between atoms: C1_1  and  C2_2
REMARK    2  A    between atoms: C7_8  and  C8_9
REMARK    3  A    between atoms: C7_8  and  C9_10
REMARK                            x       y       z     vdW  Elec       q    Type
REMARK                         _______ _______ _______ _____ _____    ______ ____
ROOT
ATOM      1  C1  UNL     1       2.826  77.601 101.896  0.00  0.00    +0.000 C 
ATOM      2  C2  UNL     1       2.131  78.281 103.050  0.00  0.00    +0.000 C 
ATOM      3  C3  UNL     1       1.714  79.543 102.861  0.00  0.00    +0.000 C 
ATOM      4  C4  UNL     1       1.031  80.285 103.921  0.00  0.00    +0.000 C 
ATOM      5  O1  UNL     1       0.648  81.468 103.721  0.00  0.00    +0.000 OA
ATOM      6  C5  UNL     1       0.795  79.648 105.214  0.00  0.00    +0.000 C 
ATOM      7  C6  UNL     1       1.196  78.396 105.433  0.00  0.00    +0.000 C 
ATOM      8  C7  UNL     1       1.915  77.548 104.389  0.00  0.00    +0.000 C 
ATOM      9  C8  UNL     1       3.279  77.148 104.984  0.00  0.00    +0.000 C 
ATOM     10  C9  UNL     1       1.058  76.289 104.154  0.00  0.00    +0.000 C 
ENDROOT
TORSDOF 0
ENDMDL
MODEL 8
REMARK VINA RESULT:      -4.8      3.761      5.102
REMARK  Name = .\Carvone.pdb
REMARK  3 active torsions:
REMARK  status: ('A' for Active; 'I' for Inactive)
REMARK    1  A    between atoms: C1_1  and  C2_2
REMARK    2  A    between atoms: C7_8  and  C8_9
REMARK    3  A    between atoms: C7_8  and  C9_10
REMARK                            x       y       z     vdW  Elec       q    Type
REMARK                         _______ _______ _______ _____ _____    ______ ____
ROOT
ATOM      1  C1  UNL     1       0.306  76.205 103.953  0.00  0.00    +0.000 C 
ATOM      2  C2  UNL     1       1.622  76.942 103.921  0.00  0.00    +0.000 C 
ATOM      3  C3  UNL     1       2.714  76.240 103.579  0.00  0.00    +0.000 C 
ATOM      4  C4  UNL     1       4.035  76.868 103.521  0.00  0.00    +0.000 C 
ATOM      5  O1  UNL     1       5.045  76.189 103.197  0.00  0.00    +0.000 OA
ATOM      6  C5  UNL     1       4.176  78.286 103.840  0.00  0.00    +0.000 C 
ATOM      7  C6  UNL     1       3.111  79.011 104.182  0.00  0.00    +0.000 C 
ATOM      8  C7  UNL     1       1.699  78.442 104.269  0.00  0.00    +0.000 C 
ATOM      9  C8  UNL     1       1.206  78.662 105.713  0.00  0.00    +0.000 C 
ATOM     10  C9  UNL     1       0.821  79.244 103.290  0.00  0.00    +0.000 C 
ENDROOT
TORSDOF 0
ENDMDL
MODEL 9
REMARK VINA RESULT:      -4.8      2.656      3.891
REMARK  Name = .\Carvone.pdb
REMARK  3 active torsions:
REMARK  status: ('A' for Active; 'I' for Inactive)
REMARK    1  A    between atoms: C1_1  and  C2_2
REMARK    2  A    between atoms: C7_8  and  C8_9
REMARK    3  A    between atoms: C7_8  and  C9_10
REMARK                            x       y       z     vdW  Elec       q    Type
REMARK                         _______ _______ _______ _____ _____    ______ ____
ROOT
ATOM      1  C1  UNL     1       2.989  76.723 105.462  0.00  0.00    +0.000 C 
ATOM      2  C2  UNL     1       2.175  77.663 104.607  0.00  0.00    +0.000 C 
ATOM      3  C3  UNL     1       1.476  77.127 103.594  0.00  0.00    +0.000 C 
ATOM      4  C4  UNL     1       0.657  77.959 102.711  0.00  0.00    +0.000 C 
ATOM      5  O1  UNL     1       0.010  77.433 101.768  0.00  0.00    +0.000 OA
ATOM      6  C5  UNL     1       0.595  79.401 102.929  0.00  0.00    +0.000 C 
ATOM      7  C6  UNL     1       1.277  79.964 103.926  0.00  0.00    +0.000 C 
ATOM      8  C7  UNL     1       2.154  79.178 104.894  0.00  0.00    +0.000 C 
ATOM      9  C8  UNL     1       3.583  79.743 104.779  0.00  0.00    +0.000 C 
ATOM     10  C9  UNL     1       1.607  79.426 106.313  0.00  0.00    +0.000 C 
ENDROOT
TORSDOF 0
ENDMDL
