MODEL 1
REMARK VINA RESULT:      -4.9      0.000      0.000
REMARK  Name = .\Carvone.pdb
REMARK  3 active torsions:
REMARK  status: ('A' for Active; 'I' for Inactive)
REMARK    1  A    between atoms: C1_1  and  C2_2
REMARK    2  A    between atoms: C7_8  and  C8_9
REMARK    3  A    between atoms: C7_8  and  C9_10
REMARK                            x       y       z     vdW  Elec       q    Type
REMARK                         _______ _______ _______ _____ _____    ______ ____
ROOT
ATOM      1  C1  UNL     1     -10.196  36.791  21.158  0.00  0.00    +0.000 C 
ATOM      2  C2  UNL     1      -8.691  36.826  21.057  0.00  0.00    +0.000 C 
ATOM      3  C3  UNL     1      -8.161  37.162  19.870  0.00  0.00    +0.000 C 
ATOM      4  C4  UNL     1      -6.711  37.224  19.675  0.00  0.00    +0.000 C 
ATOM      5  O1  UNL     1      -6.237  37.542  18.553  0.00  0.00    +0.000 OA
ATOM      6  C5  UNL     1      -5.818  36.914  20.787  0.00  0.00    +0.000 C 
ATOM      7  C6  UNL     1      -6.313  36.577  21.978  0.00  0.00    +0.000 C 
ATOM      8  C7  UNL     1      -7.806  36.487  22.273  0.00  0.00    +0.000 C 
ATOM      9  C8  UNL     1      -8.096  35.045  22.735  0.00  0.00    +0.000 C 
ATOM     10  C9  UNL     1      -8.107  37.472  23.419  0.00  0.00    +0.000 C 
ENDROOT
TORSDOF 0
ENDMDL
MODEL 2
REMARK VINA RESULT:      -4.7      0.855      2.615
REMARK  Name = .\Carvone.pdb
REMARK  3 active torsions:
REMARK  status: ('A' for Active; 'I' for Inactive)
REMARK    1  A    between atoms: C1_1  and  C2_2
REMARK    2  A    between atoms: C7_8  and  C8_9
REMARK    3  A    between atoms: C7_8  and  C9_10
REMARK                            x       y       z     vdW  Elec       q    Type
REMARK                         _______ _______ _______ _____ _____    ______ ____
ROOT
ATOM      1  C1  UNL     1      -5.457  36.606  22.149  0.00  0.00    +0.000 C 
ATOM      2  C2  UNL     1      -6.660  36.793  21.258  0.00  0.00    +0.000 C 
ATOM      3  C3  UNL     1      -6.451  37.328  20.045  0.00  0.00    +0.000 C 
ATOM      4  C4  UNL     1      -7.556  37.548  19.111  0.00  0.00    +0.000 C 
ATOM      5  O1  UNL     1      -7.336  38.052  17.977  0.00  0.00    +0.000 OA
ATOM      6  C5  UNL     1      -8.915  37.181  19.498  0.00  0.00    +0.000 C 
ATOM      7  C6  UNL     1      -9.155  36.647  20.696  0.00  0.00    +0.000 C 
ATOM      8  C7  UNL     1      -8.069  36.382  21.731  0.00  0.00    +0.000 C 
ATOM      9  C8  UNL     1      -8.439  37.179  22.998  0.00  0.00    +0.000 C 
ATOM     10  C9  UNL     1      -8.088  34.873  22.041  0.00  0.00    +0.000 C 
ENDROOT
TORSDOF 0
ENDMDL
MODEL 3
REMARK VINA RESULT:      -4.3      1.367      2.953
REMARK  Name = .\Carvone.pdb
REMARK  3 active torsions:
REMARK  status: ('A' for Active; 'I' for Inactive)
REMARK    1  A    between atoms: C1_1  and  C2_2
REMARK    2  A    between atoms: C7_8  and  C8_9
REMARK    3  A    between atoms: C7_8  and  C9_10
REMARK                            x       y       z     vdW  Elec       q    Type
REMARK                         _______ _______ _______ _____ _____    ______ ____
ROOT
ATOM      1  C1  UNL     1      -7.132  35.796  21.687  0.00  0.00    +0.000 C 
ATOM      2  C2  UNL     1      -8.008  36.575  20.736  0.00  0.00    +0.000 C 
ATOM      3  C3  UNL     1      -7.408  37.167  19.692  0.00  0.00    +0.000 C 
ATOM      4  C4  UNL     1      -8.174  37.945  18.716  0.00  0.00    +0.000 C 
ATOM      5  O1  UNL     1      -7.589  38.491  17.743  0.00  0.00    +0.000 OA
ATOM      6  C5  UNL     1      -9.618  38.084  18.875  0.00  0.00    +0.000 C 
ATOM      7  C6  UNL     1     -10.243  37.508  19.902  0.00  0.00    +0.000 C 
ATOM      8  C7  UNL     1      -9.529  36.681  20.965  0.00  0.00    +0.000 C 
ATOM      9  C8  UNL     1      -9.800  37.352  22.326  0.00  0.00    +0.000 C 
ATOM     10  C9  UNL     1     -10.152  35.272  20.945  0.00  0.00    +0.000 C 
ENDROOT
TORSDOF 0
ENDMDL
MODEL 4
REMARK VINA RESULT:      -4.3      1.048      2.577
REMARK  Name = .\Carvone.pdb
REMARK  3 active torsions:
REMARK  status: ('A' for Active; 'I' for Inactive)
REMARK    1  A    between atoms: C1_1  and  C2_2
REMARK    2  A    between atoms: C7_8  and  C8_9
REMARK    3  A    between atoms: C7_8  and  C9_10
REMARK                            x       y       z     vdW  Elec       q    Type
REMARK                         _______ _______ _______ _____ _____    ______ ____
ROOT
ATOM      1  C1  UNL     1      -7.659  35.277  23.087  0.00  0.00    +0.000 C 
ATOM      2  C2  UNL     1      -7.738  36.049  21.793  0.00  0.00    +0.000 C 
ATOM      3  C3  UNL     1      -6.580  36.426  21.229  0.00  0.00    +0.000 C 
ATOM      4  C4  UNL     1      -6.556  37.179  19.973  0.00  0.00    +0.000 C 
ATOM      5  O1  UNL     1      -5.457  37.522  19.462  0.00  0.00    +0.000 OA
ATOM      6  C5  UNL     1      -7.811  37.530  19.316  0.00  0.00    +0.000 C 
ATOM      7  C6  UNL     1      -8.978  37.169  19.850  0.00  0.00    +0.000 C 
ATOM      8  C7  UNL     1      -9.099  36.386  21.153  0.00  0.00    +0.000 C 
ATOM      9  C8  UNL     1      -9.929  37.245  22.128  0.00  0.00    +0.000 C 
ATOM     10  C9  UNL     1      -9.856  35.082  20.834  0.00  0.00    +0.000 C 
ENDROOT
TORSDOF 0
ENDMDL
MODEL 5
REMARK VINA RESULT:      -3.9      1.850      3.388
REMARK  Name = .\Carvone.pdb
REMARK  3 active torsions:
REMARK  status: ('A' for Active; 'I' for Inactive)
REMARK    1  A    between atoms: C1_1  and  C2_2
REMARK    2  A    between atoms: C7_8  and  C8_9
REMARK    3  A    between atoms: C7_8  and  C9_10
REMARK                            x       y       z     vdW  Elec       q    Type
REMARK                         _______ _______ _______ _____ _____    ______ ____
ROOT
ATOM      1  C1  UNL     1      -6.156  36.913  20.306  0.00  0.00    +0.000 C 
ATOM      2  C2  UNL     1      -7.507  37.186  19.692  0.00  0.00    +0.000 C 
ATOM      3  C3  UNL     1      -7.547  38.008  18.632  0.00  0.00    +0.000 C 
ATOM      4  C4  UNL     1      -8.812  38.332  17.969  0.00  0.00    +0.000 C 
ATOM      5  O1  UNL     1      -8.825  39.105  16.975  0.00  0.00    +0.000 OA
ATOM      6  C5  UNL     1     -10.057  37.754  18.464  0.00  0.00    +0.000 C 
ATOM      7  C6  UNL     1     -10.051  36.934  19.515  0.00  0.00    +0.000 C 
ATOM      8  C7  UNL     1      -8.784  36.541  20.267  0.00  0.00    +0.000 C 
ATOM      9  C8  UNL     1      -8.967  36.980  21.733  0.00  0.00    +0.000 C 
ATOM     10  C9  UNL     1      -8.664  35.006  20.193  0.00  0.00    +0.000 C 
ENDROOT
TORSDOF 0
ENDMDL
MODEL 6
REMARK VINA RESULT:      -3.8      1.470      3.034
REMARK  Name = .\Carvone.pdb
REMARK  3 active torsions:
REMARK  status: ('A' for Active; 'I' for Inactive)
REMARK    1  A    between atoms: C1_1  and  C2_2
REMARK    2  A    between atoms: C7_8  and  C8_9
REMARK    3  A    between atoms: C7_8  and  C9_10
REMARK                            x       y       z     vdW  Elec       q    Type
REMARK                         _______ _______ _______ _____ _____    ______ ____
ROOT
ATOM      1  C1  UNL     1      -6.238  36.552  21.113  0.00  0.00    +0.000 C 
ATOM      2  C2  UNL     1      -7.734  36.748  21.078  0.00  0.00    +0.000 C 
ATOM      3  C3  UNL     1      -8.281  37.110  19.907  0.00  0.00    +0.000 C 
ATOM      4  C4  UNL     1      -9.723  37.324  19.775  0.00  0.00    +0.000 C 
ATOM      5  O1  UNL     1     -10.214  37.663  18.666  0.00  0.00    +0.000 OA
ATOM      6  C5  UNL     1     -10.590  37.141  20.935  0.00  0.00    +0.000 C 
ATOM      7  C6  UNL     1     -10.078  36.781  22.112  0.00  0.00    +0.000 C 
ATOM      8  C7  UNL     1      -8.591  36.538  22.343  0.00  0.00    +0.000 C 
ATOM      9  C8  UNL     1      -8.132  37.514  23.444  0.00  0.00    +0.000 C 
ATOM     10  C9  UNL     1      -8.435  35.086  22.835  0.00  0.00    +0.000 C 
ENDROOT
TORSDOF 0
ENDMDL
MODEL 7
REMARK VINA RESULT:      -3.7      2.392      4.106
REMARK  Name = .\Carvone.pdb
REMARK  3 active torsions:
REMARK  status: ('A' for Active; 'I' for Inactive)
REMARK    1  A    between atoms: C1_1  and  C2_2
REMARK    2  A    between atoms: C7_8  and  C8_9
REMARK    3  A    between atoms: C7_8  and  C9_10
REMARK                            x       y       z     vdW  Elec       q    Type
REMARK                         _______ _______ _______ _____ _____    ______ ____
ROOT
ATOM      1  C1  UNL     1     -11.720  37.444  19.595  0.00  0.00    +0.000 C 
ATOM      2  C2  UNL     1     -10.232  37.515  19.354  0.00  0.00    +0.000 C 
ATOM      3  C3  UNL     1      -9.434  36.907  20.246  0.00  0.00    +0.000 C 
ATOM      4  C4  UNL     1      -7.978  36.921  20.098  0.00  0.00    +0.000 C 
ATOM      5  O1  UNL     1      -7.249  36.343  20.946  0.00  0.00    +0.000 OA
ATOM      6  C5  UNL     1      -7.374  37.610  18.961  0.00  0.00    +0.000 C 
ATOM      7  C6  UNL     1      -8.139  38.223  18.058  0.00  0.00    +0.000 C 
ATOM      8  C7  UNL     1      -9.661  38.259  18.131  0.00  0.00    +0.000 C 
ATOM      9  C8  UNL     1     -10.082  39.741  18.188  0.00  0.00    +0.000 C 
ATOM     10  C9  UNL     1     -10.198  37.614  16.839  0.00  0.00    +0.000 C 
ENDROOT
TORSDOF 0
ENDMDL
MODEL 8
REMARK VINA RESULT:      -3.6      1.637      2.197
REMARK  Name = .\Carvone.pdb
REMARK  3 active torsions:
REMARK  status: ('A' for Active; 'I' for Inactive)
REMARK    1  A    between atoms: C1_1  and  C2_2
REMARK    2  A    between atoms: C7_8  and  C8_9
REMARK    3  A    between atoms: C7_8  and  C9_10
REMARK                            x       y       z     vdW  Elec       q    Type
REMARK                         _______ _______ _______ _____ _____    ______ ____
ROOT
ATOM      1  C1  UNL     1     -10.366  36.105  22.619  0.00  0.00    +0.000 C 
ATOM      2  C2  UNL     1      -9.531  36.566  21.449  0.00  0.00    +0.000 C 
ATOM      3  C3  UNL     1     -10.144  37.301  20.507  0.00  0.00    +0.000 C 
ATOM      4  C4  UNL     1      -9.418  37.793  19.335  0.00  0.00    +0.000 C 
ATOM      5  O1  UNL     1     -10.013  38.481  18.465  0.00  0.00    +0.000 OA
ATOM      6  C5  UNL     1      -7.999  37.484  19.181  0.00  0.00    +0.000 C 
ATOM      7  C6  UNL     1      -7.362  36.758  20.099  0.00  0.00    +0.000 C 
ATOM      8  C7  UNL     1      -8.037  36.203  21.349  0.00  0.00    +0.000 C 
ATOM      9  C8  UNL     1      -7.880  34.670  21.312  0.00  0.00    +0.000 C 
ATOM     10  C9  UNL     1      -7.285  36.775  22.567  0.00  0.00    +0.000 C 
ENDROOT
TORSDOF 0
ENDMDL
MODEL 9
REMARK VINA RESULT:      -3.6      1.456      2.145
REMARK  Name = .\Carvone.pdb
REMARK  3 active torsions:
REMARK  status: ('A' for Active; 'I' for Inactive)
REMARK    1  A    between atoms: C1_1  and  C2_2
REMARK    2  A    between atoms: C7_8  and  C8_9
REMARK    3  A    between atoms: C7_8  and  C9_10
REMARK                            x       y       z     vdW  Elec       q    Type
REMARK                         _______ _______ _______ _____ _____    ______ ____
ROOT
ATOM      1  C1  UNL     1      -9.781  36.813  18.989  0.00  0.00    +0.000 C 
ATOM      2  C2  UNL     1      -8.910  36.554  20.195  0.00  0.00    +0.000 C 
ATOM      3  C3  UNL     1      -7.603  36.836  20.082  0.00  0.00    +0.000 C 
ATOM      4  C4  UNL     1      -6.680  36.618  21.197  0.00  0.00    +0.000 C 
ATOM      5  O1  UNL     1      -5.457  36.890  21.069  0.00  0.00    +0.000 OA
ATOM      6  C5  UNL     1      -7.183  36.084  22.459  0.00  0.00    +0.000 C 
ATOM      7  C6  UNL     1      -8.476  35.794  22.603  0.00  0.00    +0.000 C 
ATOM      8  C7  UNL     1      -9.509  35.988  21.498  0.00  0.00    +0.000 C 
ATOM      9  C8  UNL     1     -10.144  34.612  21.218  0.00  0.00    +0.000 C 
ATOM     10  C9  UNL     1     -10.580  36.957  22.036  0.00  0.00    +0.000 C 
ENDROOT
TORSDOF 0
ENDMDL
