MODEL 1
REMARK VINA RESULT:      -5.2      0.000      0.000
REMARK  Name = .\Carvone.pdb
REMARK  3 active torsions:
REMARK  status: ('A' for Active; 'I' for Inactive)
REMARK    1  A    between atoms: C1_1  and  C2_2
REMARK    2  A    between atoms: C7_8  and  C8_9
REMARK    3  A    between atoms: C7_8  and  C9_10
REMARK                            x       y       z     vdW  Elec       q    Type
REMARK                         _______ _______ _______ _____ _____    ______ ____
ROOT
ATOM      1  C1  UNL     1     -18.102  80.959  46.806  0.00  0.00    +0.000 C 
ATOM      2  C2  UNL     1     -16.711  81.130  47.365  0.00  0.00    +0.000 C 
ATOM      3  C3  UNL     1     -16.487  80.682  48.610  0.00  0.00    +0.000 C 
ATOM      4  C4  UNL     1     -15.170  80.803  49.237  0.00  0.00    +0.000 C 
ATOM      5  O1  UNL     1     -14.984  80.375  50.407  0.00  0.00    +0.000 OA
ATOM      6  C5  UNL     1     -14.073  81.423  48.501  0.00  0.00    +0.000 C 
ATOM      7  C6  UNL     1     -14.263  81.878  47.262  0.00  0.00    +0.000 C 
ATOM      8  C7  UNL     1     -15.598  81.795  46.531  0.00  0.00    +0.000 C 
ATOM      9  C8  UNL     1     -16.014  83.235  46.171  0.00  0.00    +0.000 C 
ATOM     10  C9  UNL     1     -15.364  80.982  45.242  0.00  0.00    +0.000 C 
ENDROOT
TORSDOF 0
ENDMDL
MODEL 2
REMARK VINA RESULT:      -4.7      1.019      2.700
REMARK  Name = .\Carvone.pdb
REMARK  3 active torsions:
REMARK  status: ('A' for Active; 'I' for Inactive)
REMARK    1  A    between atoms: C1_1  and  C2_2
REMARK    2  A    between atoms: C7_8  and  C8_9
REMARK    3  A    between atoms: C7_8  and  C9_10
REMARK                            x       y       z     vdW  Elec       q    Type
REMARK                         _______ _______ _______ _____ _____    ______ ____
ROOT
ATOM      1  C1  UNL     1     -13.474  81.543  47.651  0.00  0.00    +0.000 C 
ATOM      2  C2  UNL     1     -14.961  81.298  47.726  0.00  0.00    +0.000 C 
ATOM      3  C3  UNL     1     -15.442  80.772  48.864  0.00  0.00    +0.000 C 
ATOM      4  C4  UNL     1     -16.870  80.498  49.031  0.00  0.00    +0.000 C 
ATOM      5  O1  UNL     1     -17.299  80.005  50.107  0.00  0.00    +0.000 OA
ATOM      6  C5  UNL     1     -17.797  80.801  47.943  0.00  0.00    +0.000 C 
ATOM      7  C6  UNL     1     -17.350  81.324  46.802  0.00  0.00    +0.000 C 
ATOM      8  C7  UNL     1     -15.882  81.642  46.539  0.00  0.00    +0.000 C 
ATOM      9  C8  UNL     1     -15.452  80.829  45.302  0.00  0.00    +0.000 C 
ATOM     10  C9  UNL     1     -15.787  83.149  46.232  0.00  0.00    +0.000 C 
ENDROOT
TORSDOF 0
ENDMDL
MODEL 3
REMARK VINA RESULT:      -4.6      1.237      2.665
REMARK  Name = .\Carvone.pdb
REMARK  3 active torsions:
REMARK  status: ('A' for Active; 'I' for Inactive)
REMARK    1  A    between atoms: C1_1  and  C2_2
REMARK    2  A    between atoms: C7_8  and  C8_9
REMARK    3  A    between atoms: C7_8  and  C9_10
REMARK                            x       y       z     vdW  Elec       q    Type
REMARK                         _______ _______ _______ _____ _____    ______ ____
ROOT
ATOM      1  C1  UNL     1     -16.234  82.001  45.220  0.00  0.00    +0.000 C 
ATOM      2  C2  UNL     1     -15.875  81.537  46.611  0.00  0.00    +0.000 C 
ATOM      3  C3  UNL     1     -14.687  81.923  47.102  0.00  0.00    +0.000 C 
ATOM      4  C4  UNL     1     -14.251  81.523  48.441  0.00  0.00    +0.000 C 
ATOM      5  O1  UNL     1     -13.132  81.898  48.880  0.00  0.00    +0.000 OA
ATOM      6  C5  UNL     1     -15.120  80.689  49.265  0.00  0.00    +0.000 C 
ATOM      7  C6  UNL     1     -16.307  80.289  48.807  0.00  0.00    +0.000 C 
ATOM      8  C7  UNL     1     -16.842  80.656  47.427  0.00  0.00    +0.000 C 
ATOM      9  C8  UNL     1     -17.100  79.338  46.671  0.00  0.00    +0.000 C 
ATOM     10  C9  UNL     1     -18.171  81.407  47.636  0.00  0.00    +0.000 C 
ENDROOT
TORSDOF 0
ENDMDL
MODEL 4
REMARK VINA RESULT:      -4.4      1.226      2.188
REMARK  Name = .\Carvone.pdb
REMARK  3 active torsions:
REMARK  status: ('A' for Active; 'I' for Inactive)
REMARK    1  A    between atoms: C1_1  and  C2_2
REMARK    2  A    between atoms: C7_8  and  C8_9
REMARK    3  A    between atoms: C7_8  and  C9_10
REMARK                            x       y       z     vdW  Elec       q    Type
REMARK                         _______ _______ _______ _____ _____    ______ ____
ROOT
ATOM      1  C1  UNL     1     -17.424  79.586  49.464  0.00  0.00    +0.000 C 
ATOM      2  C2  UNL     1     -16.531  80.442  48.598  0.00  0.00    +0.000 C 
ATOM      3  C3  UNL     1     -15.324  80.765  49.088  0.00  0.00    +0.000 C 
ATOM      4  C4  UNL     1     -14.389  81.590  48.322  0.00  0.00    +0.000 C 
ATOM      5  O1  UNL     1     -13.262  81.881  48.803  0.00  0.00    +0.000 OA
ATOM      6  C5  UNL     1     -14.769  82.076  46.999  0.00  0.00    +0.000 C 
ATOM      7  C6  UNL     1     -15.960  81.771  46.484  0.00  0.00    +0.000 C 
ATOM      8  C7  UNL     1     -16.997  80.919  47.208  0.00  0.00    +0.000 C 
ATOM      9  C8  UNL     1     -18.270  81.775  47.357  0.00  0.00    +0.000 C 
ATOM     10  C9  UNL     1     -17.291  79.698  46.316  0.00  0.00    +0.000 C 
ENDROOT
TORSDOF 0
ENDMDL
MODEL 5
REMARK VINA RESULT:      -4.1      0.951      2.490
REMARK  Name = .\Carvone.pdb
REMARK  3 active torsions:
REMARK  status: ('A' for Active; 'I' for Inactive)
REMARK    1  A    between atoms: C1_1  and  C2_2
REMARK    2  A    between atoms: C7_8  and  C8_9
REMARK    3  A    between atoms: C7_8  and  C9_10
REMARK                            x       y       z     vdW  Elec       q    Type
REMARK                         _______ _______ _______ _____ _____    ______ ____
ROOT
ATOM      1  C1  UNL     1     -14.742  82.905  46.485  0.00  0.00    +0.000 C 
ATOM      2  C2  UNL     1     -15.405  81.820  47.298  0.00  0.00    +0.000 C 
ATOM      3  C3  UNL     1     -14.850  81.509  48.480  0.00  0.00    +0.000 C 
ATOM      4  C4  UNL     1     -15.421  80.470  49.339  0.00  0.00    +0.000 C 
ATOM      5  O1  UNL     1     -14.883  80.197  50.444  0.00  0.00    +0.000 OA
ATOM      6  C5  UNL     1     -16.617  79.753  48.908  0.00  0.00    +0.000 C 
ATOM      7  C6  UNL     1     -17.192  80.038  47.740  0.00  0.00    +0.000 C 
ATOM      8  C7  UNL     1     -16.668  81.102  46.782  0.00  0.00    +0.000 C 
ATOM      9  C8  UNL     1     -16.353  80.401  45.446  0.00  0.00    +0.000 C 
ATOM     10  C9  UNL     1     -17.798  82.131  46.578  0.00  0.00    +0.000 C 
ENDROOT
TORSDOF 0
ENDMDL
MODEL 6
REMARK VINA RESULT:      -4.0      2.354      3.388
REMARK  Name = .\Carvone.pdb
REMARK  3 active torsions:
REMARK  status: ('A' for Active; 'I' for Inactive)
REMARK    1  A    between atoms: C1_1  and  C2_2
REMARK    2  A    between atoms: C7_8  and  C8_9
REMARK    3  A    between atoms: C7_8  and  C9_10
REMARK                            x       y       z     vdW  Elec       q    Type
REMARK                         _______ _______ _______ _____ _____    ______ ____
ROOT
ATOM      1  C1  UNL     1     -16.554  80.393  48.685  0.00  0.00    +0.000 C 
ATOM      2  C2  UNL     1     -16.269  80.324  47.205  0.00  0.00    +0.000 C 
ATOM      3  C3  UNL     1     -16.300  79.113  46.627  0.00  0.00    +0.000 C 
ATOM      4  C4  UNL     1     -16.037  78.946  45.196  0.00  0.00    +0.000 C 
ATOM      5  O1  UNL     1     -16.073  77.800  44.676  0.00  0.00    +0.000 OA
ATOM      6  C5  UNL     1     -15.733  80.115  44.376  0.00  0.00    +0.000 C 
ATOM      7  C6  UNL     1     -15.694  81.331  44.920  0.00  0.00    +0.000 C 
ATOM      8  C7  UNL     1     -15.955  81.600  46.398  0.00  0.00    +0.000 C 
ATOM      9  C8  UNL     1     -14.692  82.273  46.970  0.00  0.00    +0.000 C 
ATOM     10  C9  UNL     1     -17.148  82.571  46.484  0.00  0.00    +0.000 C 
ENDROOT
TORSDOF 0
ENDMDL
MODEL 7
REMARK VINA RESULT:      -4.0      2.147      3.328
REMARK  Name = .\Carvone.pdb
REMARK  3 active torsions:
REMARK  status: ('A' for Active; 'I' for Inactive)
REMARK    1  A    between atoms: C1_1  and  C2_2
REMARK    2  A    between atoms: C7_8  and  C8_9
REMARK    3  A    between atoms: C7_8  and  C9_10
REMARK                            x       y       z     vdW  Elec       q    Type
REMARK                         _______ _______ _______ _____ _____    ______ ____
ROOT
ATOM      1  C1  UNL     1     -16.942  79.136  48.008  0.00  0.00    +0.000 C 
ATOM      2  C2  UNL     1     -16.142  80.367  47.659  0.00  0.00    +0.000 C 
ATOM      3  C3  UNL     1     -16.663  81.201  46.744  0.00  0.00    +0.000 C 
ATOM      4  C4  UNL     1     -15.960  82.420  46.341  0.00  0.00    +0.000 C 
ATOM      5  O1  UNL     1     -16.468  83.188  45.481  0.00  0.00    +0.000 OA
ATOM      6  C5  UNL     1     -14.669  82.743  46.939  0.00  0.00    +0.000 C 
ATOM      7  C6  UNL     1     -14.126  81.936  47.850  0.00  0.00    +0.000 C 
ATOM      8  C7  UNL     1     -14.783  80.647  48.331  0.00  0.00    +0.000 C 
ATOM      9  C8  UNL     1     -13.809  79.493  48.022  0.00  0.00    +0.000 C 
ATOM     10  C9  UNL     1     -14.978  80.772  49.854  0.00  0.00    +0.000 C 
ENDROOT
TORSDOF 0
ENDMDL
MODEL 8
REMARK VINA RESULT:      -3.9      1.669      2.896
REMARK  Name = .\Carvone.pdb
REMARK  3 active torsions:
REMARK  status: ('A' for Active; 'I' for Inactive)
REMARK    1  A    between atoms: C1_1  and  C2_2
REMARK    2  A    between atoms: C7_8  and  C8_9
REMARK    3  A    between atoms: C7_8  and  C9_10
REMARK                            x       y       z     vdW  Elec       q    Type
REMARK                         _______ _______ _______ _____ _____    ______ ____
ROOT
ATOM      1  C1  UNL     1     -15.119  81.366  45.813  0.00  0.00    +0.000 C 
ATOM      2  C2  UNL     1     -15.578  80.936  47.185  0.00  0.00    +0.000 C 
ATOM      3  C3  UNL     1     -16.900  80.810  47.381  0.00  0.00    +0.000 C 
ATOM      4  C4  UNL     1     -17.441  80.398  48.678  0.00  0.00    +0.000 C 
ATOM      5  O1  UNL     1     -18.685  80.287  48.838  0.00  0.00    +0.000 OA
ATOM      6  C5  UNL     1     -16.531  80.117  49.785  0.00  0.00    +0.000 C 
ATOM      7  C6  UNL     1     -15.213  80.232  49.622  0.00  0.00    +0.000 C 
ATOM      8  C7  UNL     1     -14.562  80.655  48.309  0.00  0.00    +0.000 C 
ATOM      9  C8  UNL     1     -13.743  81.929  48.594  0.00  0.00    +0.000 C 
ATOM     10  C9  UNL     1     -13.619  79.514  47.878  0.00  0.00    +0.000 C 
ENDROOT
TORSDOF 0
ENDMDL
MODEL 9
REMARK VINA RESULT:      -3.7      1.527      2.929
REMARK  Name = .\Carvone.pdb
REMARK  3 active torsions:
REMARK  status: ('A' for Active; 'I' for Inactive)
REMARK    1  A    between atoms: C1_1  and  C2_2
REMARK    2  A    between atoms: C7_8  and  C8_9
REMARK    3  A    between atoms: C7_8  and  C9_10
REMARK                            x       y       z     vdW  Elec       q    Type
REMARK                         _______ _______ _______ _____ _____    ______ ____
ROOT
ATOM      1  C1  UNL     1     -17.816  81.807  46.285  0.00  0.00    +0.000 C 
ATOM      2  C2  UNL     1     -16.894  81.267  47.351  0.00  0.00    +0.000 C 
ATOM      3  C3  UNL     1     -15.702  81.867  47.496  0.00  0.00    +0.000 C 
ATOM      4  C4  UNL     1     -14.741  81.414  48.503  0.00  0.00    +0.000 C 
ATOM      5  O1  UNL     1     -13.628  81.993  48.621  0.00  0.00    +0.000 OA
ATOM      6  C5  UNL     1     -15.077  80.289  49.370  0.00  0.00    +0.000 C 
ATOM      7  C6  UNL     1     -16.253  79.672  49.251  0.00  0.00    +0.000 C 
ATOM      8  C7  UNL     1     -17.314  80.074  48.232  0.00  0.00    +0.000 C 
ATOM      9  C8  UNL     1     -17.582  78.845  47.341  0.00  0.00    +0.000 C 
ATOM     10  C9  UNL     1     -18.589  80.437  49.018  0.00  0.00    +0.000 C 
ENDROOT
TORSDOF 0
ENDMDL
