MODEL 1
REMARK VINA RESULT:       1.1      0.000      0.000
REMARK  Name = .\Carvone.pdb
REMARK  3 active torsions:
REMARK  status: ('A' for Active; 'I' for Inactive)
REMARK    1  A    between atoms: C1_1  and  C2_2
REMARK    2  A    between atoms: C7_8  and  C8_9
REMARK    3  A    between atoms: C7_8  and  C9_10
REMARK                            x       y       z     vdW  Elec       q    Type
REMARK                         _______ _______ _______ _____ _____    ______ ____
ROOT
ATOM      1  C1  UNL     1      -3.225  76.993  90.257  0.00  0.00    +0.000 C 
ATOM      2  C2  UNL     1      -4.574  77.653  90.410  0.00  0.00    +0.000 C 
ATOM      3  C3  UNL     1      -5.319  77.294  91.467  0.00  0.00    +0.000 C 
ATOM      4  C4  UNL     1      -6.640  77.880  91.700  0.00  0.00    +0.000 C 
ATOM      5  O1  UNL     1      -7.321  77.528  92.699  0.00  0.00    +0.000 OA
ATOM      6  C5  UNL     1      -7.165  78.874  90.768  0.00  0.00    +0.000 C 
ATOM      7  C6  UNL     1      -6.449  79.251  89.708  0.00  0.00    +0.000 C 
ATOM      8  C7  UNL     1      -5.066  78.696  89.387  0.00  0.00    +0.000 C 
ATOM      9  C8  UNL     1      -5.145  78.050  87.990  0.00  0.00    +0.000 C 
ATOM     10  C9  UNL     1      -4.090  79.888  89.356  0.00  0.00    +0.000 C 
ENDROOT
TORSDOF 0
ENDMDL
MODEL 2
REMARK VINA RESULT:       1.5      1.066      2.549
REMARK  Name = .\Carvone.pdb
REMARK  3 active torsions:
REMARK  status: ('A' for Active; 'I' for Inactive)
REMARK    1  A    between atoms: C1_1  and  C2_2
REMARK    2  A    between atoms: C7_8  and  C8_9
REMARK    3  A    between atoms: C7_8  and  C9_10
REMARK                            x       y       z     vdW  Elec       q    Type
REMARK                         _______ _______ _______ _____ _____    ______ ____
ROOT
ATOM      1  C1  UNL     1      -4.344  79.949  88.642  0.00  0.00    +0.000 C 
ATOM      2  C2  UNL     1      -4.956  79.039  89.679  0.00  0.00    +0.000 C 
ATOM      3  C3  UNL     1      -6.184  79.351  90.123  0.00  0.00    +0.000 C 
ATOM      4  C4  UNL     1      -6.859  78.528  91.128  0.00  0.00    +0.000 C 
ATOM      5  O1  UNL     1      -8.011  78.840  91.530  0.00  0.00    +0.000 OA
ATOM      6  C5  UNL     1      -6.191  77.346  91.663  0.00  0.00    +0.000 C 
ATOM      7  C6  UNL     1      -4.972  77.009  91.241  0.00  0.00    +0.000 C 
ATOM      8  C7  UNL     1      -4.194  77.805  90.200  0.00  0.00    +0.000 C 
ATOM      9  C8  UNL     1      -2.875  78.255  90.858  0.00  0.00    +0.000 C 
ATOM     10  C9  UNL     1      -3.893  76.852  89.026  0.00  0.00    +0.000 C 
ENDROOT
TORSDOF 0
ENDMDL
MODEL 3
REMARK VINA RESULT:       2.2      2.165      3.357
REMARK  Name = .\Carvone.pdb
REMARK  3 active torsions:
REMARK  status: ('A' for Active; 'I' for Inactive)
REMARK    1  A    between atoms: C1_1  and  C2_2
REMARK    2  A    between atoms: C7_8  and  C8_9
REMARK    3  A    between atoms: C7_8  and  C9_10
REMARK                            x       y       z     vdW  Elec       q    Type
REMARK                         _______ _______ _______ _____ _____    ______ ____
ROOT
ATOM      1  C1  UNL     1      -6.299  76.914  92.305  0.00  0.00    +0.000 C 
ATOM      2  C2  UNL     1      -5.571  77.532  91.136  0.00  0.00    +0.000 C 
ATOM      3  C3  UNL     1      -4.686  76.762  90.484  0.00  0.00    +0.000 C 
ATOM      4  C4  UNL     1      -3.932  77.273  89.338  0.00  0.00    +0.000 C 
ATOM      5  O1  UNL     1      -3.108  76.532  88.741  0.00  0.00    +0.000 OA
ATOM      6  C5  UNL     1      -4.140  78.647  88.891  0.00  0.00    +0.000 C 
ATOM      7  C6  UNL     1      -5.011  79.437  89.517  0.00  0.00    +0.000 C 
ATOM      8  C7  UNL     1      -5.839  78.991  90.717  0.00  0.00    +0.000 C 
ATOM      9  C8  UNL     1      -5.496  79.935  91.887  0.00  0.00    +0.000 C 
ATOM     10  C9  UNL     1      -7.324  79.152  90.335  0.00  0.00    +0.000 C 
ENDROOT
TORSDOF 0
ENDMDL
MODEL 4
REMARK VINA RESULT:       2.5      2.546      3.639
REMARK  Name = .\Carvone.pdb
REMARK  3 active torsions:
REMARK  status: ('A' for Active; 'I' for Inactive)
REMARK    1  A    between atoms: C1_1  and  C2_2
REMARK    2  A    between atoms: C7_8  and  C8_9
REMARK    3  A    between atoms: C7_8  and  C9_10
REMARK                            x       y       z     vdW  Elec       q    Type
REMARK                         _______ _______ _______ _____ _____    ______ ____
ROOT
ATOM      1  C1  UNL     1      -3.299  77.757  91.123  0.00  0.00    +0.000 C 
ATOM      2  C2  UNL     1      -3.870  77.630  89.732  0.00  0.00    +0.000 C 
ATOM      3  C3  UNL     1      -3.391  76.645  88.956  0.00  0.00    +0.000 C 
ATOM      4  C4  UNL     1      -3.883  76.443  87.593  0.00  0.00    +0.000 C 
ATOM      5  O1  UNL     1      -3.418  75.512  86.884  0.00  0.00    +0.000 OA
ATOM      6  C5  UNL     1      -4.915  77.326  87.058  0.00  0.00    +0.000 C 
ATOM      7  C6  UNL     1      -5.412  78.314  87.803  0.00  0.00    +0.000 C 
ATOM      8  C7  UNL     1      -4.960  78.598  89.231  0.00  0.00    +0.000 C 
ATOM      9  C8  UNL     1      -4.420  80.042  89.261  0.00  0.00    +0.000 C 
ATOM     10  C9  UNL     1      -6.203  78.487  90.135  0.00  0.00    +0.000 C 
ENDROOT
TORSDOF 0
ENDMDL
MODEL 5
REMARK VINA RESULT:       3.7      1.435      2.291
REMARK  Name = .\Carvone.pdb
REMARK  3 active torsions:
REMARK  status: ('A' for Active; 'I' for Inactive)
REMARK    1  A    between atoms: C1_1  and  C2_2
REMARK    2  A    between atoms: C7_8  and  C8_9
REMARK    3  A    between atoms: C7_8  and  C9_10
REMARK                            x       y       z     vdW  Elec       q    Type
REMARK                         _______ _______ _______ _____ _____    ______ ____
ROOT
ATOM      1  C1  UNL     1      -5.316  76.281  92.011  0.00  0.00    +0.000 C 
ATOM      2  C2  UNL     1      -5.391  77.460  91.071  0.00  0.00    +0.000 C 
ATOM      3  C3  UNL     1      -6.546  78.144  91.033  0.00  0.00    +0.000 C 
ATOM      4  C4  UNL     1      -6.715  79.302  90.154  0.00  0.00    +0.000 C 
ATOM      5  O1  UNL     1      -7.807  79.928  90.135  0.00  0.00    +0.000 OA
ATOM      6  C5  UNL     1      -5.611  79.727  89.298  0.00  0.00    +0.000 C 
ATOM      7  C6  UNL     1      -4.452  79.069  89.313  0.00  0.00    +0.000 C 
ATOM      8  C7  UNL     1      -4.186  77.854  90.195  0.00  0.00    +0.000 C 
ATOM      9  C8  UNL     1      -3.822  76.682  89.263  0.00  0.00    +0.000 C 
ATOM     10  C9  UNL     1      -2.984  78.197  91.097  0.00  0.00    +0.000 C 
ENDROOT
TORSDOF 0
ENDMDL
MODEL 6
REMARK VINA RESULT:       3.8      2.295      3.836
REMARK  Name = .\Carvone.pdb
REMARK  3 active torsions:
REMARK  status: ('A' for Active; 'I' for Inactive)
REMARK    1  A    between atoms: C1_1  and  C2_2
REMARK    2  A    between atoms: C7_8  and  C8_9
REMARK    3  A    between atoms: C7_8  and  C9_10
REMARK                            x       y       z     vdW  Elec       q    Type
REMARK                         _______ _______ _______ _____ _____    ______ ____
ROOT
ATOM      1  C1  UNL     1      -7.177  79.567  90.479  0.00  0.00    +0.000 C 
ATOM      2  C2  UNL     1      -6.022  78.761  89.935  0.00  0.00    +0.000 C 
ATOM      3  C3  UNL     1      -5.952  78.607  88.604  0.00  0.00    +0.000 C 
ATOM      4  C4  UNL     1      -4.869  77.842  87.983  0.00  0.00    +0.000 C 
ATOM      5  O1  UNL     1      -4.824  77.712  86.731  0.00  0.00    +0.000 OA
ATOM      6  C5  UNL     1      -3.842  77.232  88.821  0.00  0.00    +0.000 C 
ATOM      7  C6  UNL     1      -3.884  77.367  90.147  0.00  0.00    +0.000 C 
ATOM      8  C7  UNL     1      -4.972  78.144  90.879  0.00  0.00    +0.000 C 
ATOM      9  C8  UNL     1      -5.662  77.163  91.848  0.00  0.00    +0.000 C 
ATOM     10  C9  UNL     1      -4.276  79.263  91.678  0.00  0.00    +0.000 C 
ENDROOT
TORSDOF 0
ENDMDL
