MODEL 1
REMARK VINA RESULT:      -4.4      0.000      0.000
REMARK  Name = .\Carvone.pdb
REMARK  3 active torsions:
REMARK  status: ('A' for Active; 'I' for Inactive)
REMARK    1  A    between atoms: C1_1  and  C2_2
REMARK    2  A    between atoms: C7_8  and  C8_9
REMARK    3  A    between atoms: C7_8  and  C9_10
REMARK                            x       y       z     vdW  Elec       q    Type
REMARK                         _______ _______ _______ _____ _____    ______ ____
ROOT
ATOM      1  C1  UNL     1       3.175  53.303 -35.844  0.00  0.00    +0.000 C 
ATOM      2  C2  UNL     1       3.801  54.071 -34.706  0.00  0.00    +0.000 C 
ATOM      3  C3  UNL     1       4.654  55.058 -35.024  0.00  0.00    +0.000 C 
ATOM      4  C4  UNL     1       5.311  55.859 -33.990  0.00  0.00    +0.000 C 
ATOM      5  O1  UNL     1       6.107  56.779 -34.312  0.00  0.00    +0.000 OA
ATOM      6  C5  UNL     1       5.039  55.585 -32.582  0.00  0.00    +0.000 C 
ATOM      7  C6  UNL     1       4.197  54.612 -32.233  0.00  0.00    +0.000 C 
ATOM      8  C7  UNL     1       3.469  53.729 -33.240  0.00  0.00    +0.000 C 
ATOM      9  C8  UNL     1       3.873  52.271 -32.947  0.00  0.00    +0.000 C 
ATOM     10  C9  UNL     1       1.957  53.909 -32.999  0.00  0.00    +0.000 C 
ENDROOT
TORSDOF 0
ENDMDL
MODEL 2
REMARK VINA RESULT:      -4.3      2.494      3.991
REMARK  Name = .\Carvone.pdb
REMARK  3 active torsions:
REMARK  status: ('A' for Active; 'I' for Inactive)
REMARK    1  A    between atoms: C1_1  and  C2_2
REMARK    2  A    between atoms: C7_8  and  C8_9
REMARK    3  A    between atoms: C7_8  and  C9_10
REMARK                            x       y       z     vdW  Elec       q    Type
REMARK                         _______ _______ _______ _____ _____    ______ ____
ROOT
ATOM      1  C1  UNL     1       4.780  55.407 -31.649  0.00  0.00    +0.000 C 
ATOM      2  C2  UNL     1       4.666  53.941 -31.988  0.00  0.00    +0.000 C 
ATOM      3  C3  UNL     1       5.328  53.074 -31.206  0.00  0.00    +0.000 C 
ATOM      4  C4  UNL     1       5.278  51.633 -31.457  0.00  0.00    +0.000 C 
ATOM      5  O1  UNL     1       5.907  50.838 -30.709  0.00  0.00    +0.000 OA
ATOM      6  C5  UNL     1       4.495  51.120 -32.577  0.00  0.00    +0.000 C 
ATOM      7  C6  UNL     1       3.825  51.956 -33.372  0.00  0.00    +0.000 C 
ATOM      8  C7  UNL     1       3.820  53.469 -33.187  0.00  0.00    +0.000 C 
ATOM      9  C8  UNL     1       4.374  54.090 -34.485  0.00  0.00    +0.000 C 
ATOM     10  C9  UNL     1       2.355  53.901 -32.986  0.00  0.00    +0.000 C 
ENDROOT
TORSDOF 0
ENDMDL
MODEL 3
REMARK VINA RESULT:      -4.2      1.905      2.937
REMARK  Name = .\Carvone.pdb
REMARK  3 active torsions:
REMARK  status: ('A' for Active; 'I' for Inactive)
REMARK    1  A    between atoms: C1_1  and  C2_2
REMARK    2  A    between atoms: C7_8  and  C8_9
REMARK    3  A    between atoms: C7_8  and  C9_10
REMARK                            x       y       z     vdW  Elec       q    Type
REMARK                         _______ _______ _______ _____ _____    ______ ____
ROOT
ATOM      1  C1  UNL     1       4.283  51.452 -33.040  0.00  0.00    +0.000 C 
ATOM      2  C2  UNL     1       4.545  52.856 -32.553  0.00  0.00    +0.000 C 
ATOM      3  C3  UNL     1       5.420  53.006 -31.546  0.00  0.00    +0.000 C 
ATOM      4  C4  UNL     1       5.738  54.328 -31.006  0.00  0.00    +0.000 C 
ATOM      5  O1  UNL     1       6.563  54.444 -30.061  0.00  0.00    +0.000 OA
ATOM      6  C5  UNL     1       5.096  55.513 -31.567  0.00  0.00    +0.000 C 
ATOM      7  C6  UNL     1       4.223  55.398 -32.568  0.00  0.00    +0.000 C 
ATOM      8  C7  UNL     1       3.831  54.064 -33.192  0.00  0.00    +0.000 C 
ATOM      9  C8  UNL     1       2.306  53.909 -33.023  0.00  0.00    +0.000 C 
ATOM     10  C9  UNL     1       4.184  54.137 -34.690  0.00  0.00    +0.000 C 
ENDROOT
TORSDOF 0
ENDMDL
MODEL 4
REMARK VINA RESULT:      -4.0      2.137      3.296
REMARK  Name = .\Carvone.pdb
REMARK  3 active torsions:
REMARK  status: ('A' for Active; 'I' for Inactive)
REMARK    1  A    between atoms: C1_1  and  C2_2
REMARK    2  A    between atoms: C7_8  and  C8_9
REMARK    3  A    between atoms: C7_8  and  C9_10
REMARK                            x       y       z     vdW  Elec       q    Type
REMARK                         _______ _______ _______ _____ _____    ______ ____
ROOT
ATOM      1  C1  UNL     1       4.555  51.409 -32.284  0.00  0.00    +0.000 C 
ATOM      2  C2  UNL     1       4.395  52.516 -33.297  0.00  0.00    +0.000 C 
ATOM      3  C3  UNL     1       3.657  52.253 -34.386  0.00  0.00    +0.000 C 
ATOM      4  C4  UNL     1       3.445  53.263 -35.424  0.00  0.00    +0.000 C 
ATOM      5  O1  UNL     1       2.748  52.994 -36.437  0.00  0.00    +0.000 OA
ATOM      6  C5  UNL     1       4.046  54.586 -35.278  0.00  0.00    +0.000 C 
ATOM      7  C6  UNL     1       4.784  54.879 -34.208  0.00  0.00    +0.000 C 
ATOM      8  C7  UNL     1       5.058  53.891 -33.079  0.00  0.00    +0.000 C 
ATOM      9  C8  UNL     1       6.587  53.716 -32.984  0.00  0.00    +0.000 C 
ATOM     10  C9  UNL     1       4.523  54.521 -31.779  0.00  0.00    +0.000 C 
ENDROOT
TORSDOF 0
ENDMDL
MODEL 5
REMARK VINA RESULT:      -3.9      2.775      3.910
REMARK  Name = .\Carvone.pdb
REMARK  3 active torsions:
REMARK  status: ('A' for Active; 'I' for Inactive)
REMARK    1  A    between atoms: C1_1  and  C2_2
REMARK    2  A    between atoms: C7_8  and  C8_9
REMARK    3  A    between atoms: C7_8  and  C9_10
REMARK                            x       y       z     vdW  Elec       q    Type
REMARK                         _______ _______ _______ _____ _____    ______ ____
ROOT
ATOM      1  C1  UNL     1       3.578  53.304 -34.797  0.00  0.00    +0.000 C 
ATOM      2  C2  UNL     1       4.218  52.886 -33.495  0.00  0.00    +0.000 C 
ATOM      3  C3  UNL     1       4.129  51.591 -33.153  0.00  0.00    +0.000 C 
ATOM      4  C4  UNL     1       4.718  51.092 -31.909  0.00  0.00    +0.000 C 
ATOM      5  O1  UNL     1       4.622  49.873 -31.609  0.00  0.00    +0.000 OA
ATOM      6  C5  UNL     1       5.416  52.014 -31.018  0.00  0.00    +0.000 C 
ATOM      7  C6  UNL     1       5.522  53.305 -31.331  0.00  0.00    +0.000 C 
ATOM      8  C7  UNL     1       4.941  53.914 -32.602  0.00  0.00    +0.000 C 
ATOM      9  C8  UNL     1       3.948  55.012 -32.172  0.00  0.00    +0.000 C 
ATOM     10  C9  UNL     1       6.110  54.544 -33.384  0.00  0.00    +0.000 C 
ENDROOT
TORSDOF 0
ENDMDL
MODEL 6
REMARK VINA RESULT:      -3.9      0.916      2.563
REMARK  Name = .\Carvone.pdb
REMARK  3 active torsions:
REMARK  status: ('A' for Active; 'I' for Inactive)
REMARK    1  A    between atoms: C1_1  and  C2_2
REMARK    2  A    between atoms: C7_8  and  C8_9
REMARK    3  A    between atoms: C7_8  and  C9_10
REMARK                            x       y       z     vdW  Elec       q    Type
REMARK                         _______ _______ _______ _____ _____    ______ ____
ROOT
ATOM      1  C1  UNL     1       5.301  53.858 -31.448  0.00  0.00    +0.000 C 
ATOM      2  C2  UNL     1       4.958  54.229 -32.870  0.00  0.00    +0.000 C 
ATOM      3  C3  UNL     1       5.748  55.126 -33.480  0.00  0.00    +0.000 C 
ATOM      4  C4  UNL     1       5.495  55.549 -34.859  0.00  0.00    +0.000 C 
ATOM      5  O1  UNL     1       6.250  56.392 -35.411  0.00  0.00    +0.000 OA
ATOM      6  C5  UNL     1       4.363  54.988 -35.590  0.00  0.00    +0.000 C 
ATOM      7  C6  UNL     1       3.560  54.095 -35.012  0.00  0.00    +0.000 C 
ATOM      8  C7  UNL     1       3.746  53.598 -33.583  0.00  0.00    +0.000 C 
ATOM      9  C8  UNL     1       2.458  53.937 -32.808  0.00  0.00    +0.000 C 
ATOM     10  C9  UNL     1       3.927  52.069 -33.650  0.00  0.00    +0.000 C 
ENDROOT
TORSDOF 0
ENDMDL
MODEL 7
REMARK VINA RESULT:      -3.9      1.825      2.677
REMARK  Name = .\Carvone.pdb
REMARK  3 active torsions:
REMARK  status: ('A' for Active; 'I' for Inactive)
REMARK    1  A    between atoms: C1_1  and  C2_2
REMARK    2  A    between atoms: C7_8  and  C8_9
REMARK    3  A    between atoms: C7_8  and  C9_10
REMARK                            x       y       z     vdW  Elec       q    Type
REMARK                         _______ _______ _______ _____ _____    ______ ____
ROOT
ATOM      1  C1  UNL     1       2.355  53.949 -32.982  0.00  0.00    +0.000 C 
ATOM      2  C2  UNL     1       3.826  54.004 -32.647  0.00  0.00    +0.000 C 
ATOM      3  C3  UNL     1       4.254  55.047 -31.919  0.00  0.00    +0.000 C 
ATOM      4  C4  UNL     1       5.662  55.187 -31.545  0.00  0.00    +0.000 C 
ATOM      5  O1  UNL     1       6.040  56.174 -30.861  0.00  0.00    +0.000 OA
ATOM      6  C5  UNL     1       6.627  54.176 -31.969  0.00  0.00    +0.000 C 
ATOM      7  C6  UNL     1       6.233  53.127 -32.692  0.00  0.00    +0.000 C 
ATOM      8  C7  UNL     1       4.790  52.900 -33.127  0.00  0.00    +0.000 C 
ATOM      9  C8  UNL     1       4.779  52.842 -34.668  0.00  0.00    +0.000 C 
ATOM     10  C9  UNL     1       4.346  51.542 -32.551  0.00  0.00    +0.000 C 
ENDROOT
TORSDOF 0
ENDMDL
MODEL 8
REMARK VINA RESULT:      -3.9      2.363      3.495
REMARK  Name = .\Carvone.pdb
REMARK  3 active torsions:
REMARK  status: ('A' for Active; 'I' for Inactive)
REMARK    1  A    between atoms: C1_1  and  C2_2
REMARK    2  A    between atoms: C7_8  and  C8_9
REMARK    3  A    between atoms: C7_8  and  C9_10
REMARK                            x       y       z     vdW  Elec       q    Type
REMARK                         _______ _______ _______ _____ _____    ______ ____
ROOT
ATOM      1  C1  UNL     1       6.333  52.741 -35.973  0.00  0.00    +0.000 C 
ATOM      2  C2  UNL     1       5.292  52.853 -34.886  0.00  0.00    +0.000 C 
ATOM      3  C3  UNL     1       5.475  52.115 -33.780  0.00  0.00    +0.000 C 
ATOM      4  C4  UNL     1       4.520  52.156 -32.672  0.00  0.00    +0.000 C 
ATOM      5  O1  UNL     1       4.713  51.455 -31.643  0.00  0.00    +0.000 OA
ATOM      6  C5  UNL     1       3.342  53.013 -32.764  0.00  0.00    +0.000 C 
ATOM      7  C6  UNL     1       3.132  53.759 -33.849  0.00  0.00    +0.000 C 
ATOM      8  C7  UNL     1       4.071  53.779 -35.050  0.00  0.00    +0.000 C 
ATOM      9  C8  UNL     1       3.252  53.340 -36.279  0.00  0.00    +0.000 C 
ATOM     10  C9  UNL     1       4.549  55.233 -35.233  0.00  0.00    +0.000 C 
ENDROOT
TORSDOF 0
ENDMDL
MODEL 9
REMARK VINA RESULT:      -3.9      2.404      4.019
REMARK  Name = .\Carvone.pdb
REMARK  3 active torsions:
REMARK  status: ('A' for Active; 'I' for Inactive)
REMARK    1  A    between atoms: C1_1  and  C2_2
REMARK    2  A    between atoms: C7_8  and  C8_9
REMARK    3  A    between atoms: C7_8  and  C9_10
REMARK                            x       y       z     vdW  Elec       q    Type
REMARK                         _______ _______ _______ _____ _____    ______ ____
ROOT
ATOM      1  C1  UNL     1       7.081  52.052 -30.700  0.00  0.00    +0.000 C 
ATOM      2  C2  UNL     1       5.862  52.350 -31.538  0.00  0.00    +0.000 C 
ATOM      3  C3  UNL     1       5.344  53.585 -31.454  0.00  0.00    +0.000 C 
ATOM      4  C4  UNL     1       4.163  53.968 -32.230  0.00  0.00    +0.000 C 
ATOM      5  O1  UNL     1       3.695  55.134 -32.135  0.00  0.00    +0.000 OA
ATOM      6  C5  UNL     1       3.530  52.993 -33.113  0.00  0.00    +0.000 C 
ATOM      7  C6  UNL     1       4.021  51.758 -33.218  0.00  0.00    +0.000 C 
ATOM      8  C7  UNL     1       5.244  51.272 -32.451  0.00  0.00    +0.000 C 
ATOM      9  C8  UNL     1       4.801  50.067 -31.597  0.00  0.00    +0.000 C 
ATOM     10  C9  UNL     1       6.287  50.818 -33.491  0.00  0.00    +0.000 C 
ENDROOT
TORSDOF 0
ENDMDL
