MODEL 1
REMARK VINA RESULT:      -4.5      0.000      0.000
REMARK  Name = .\Carvone.pdb
REMARK  3 active torsions:
REMARK  status: ('A' for Active; 'I' for Inactive)
REMARK    1  A    between atoms: C1_1  and  C2_2
REMARK    2  A    between atoms: C7_8  and  C8_9
REMARK    3  A    between atoms: C7_8  and  C9_10
REMARK                            x       y       z     vdW  Elec       q    Type
REMARK                         _______ _______ _______ _____ _____    ______ ____
ROOT
ATOM      1  C1  UNL     1      -0.192  53.856 -21.509  0.00  0.00    +0.000 C 
ATOM      2  C2  UNL     1      -0.183  53.949 -23.015  0.00  0.00    +0.000 C 
ATOM      3  C3  UNL     1      -1.350  53.760 -23.651  0.00  0.00    +0.000 C 
ATOM      4  C4  UNL     1      -1.441  53.831 -25.110  0.00  0.00    +0.000 C 
ATOM      5  O1  UNL     1      -2.547  53.650 -25.685  0.00  0.00    +0.000 OA
ATOM      6  C5  UNL     1      -0.244  54.112 -25.897  0.00  0.00    +0.000 C 
ATOM      7  C6  UNL     1       0.930  54.306 -25.295  0.00  0.00    +0.000 C 
ATOM      8  C7  UNL     1       1.119  54.251 -23.783  0.00  0.00    +0.000 C 
ATOM      9  C8  UNL     1       2.156  53.148 -23.491  0.00  0.00    +0.000 C 
ATOM     10  C9  UNL     1       1.674  55.618 -23.340  0.00  0.00    +0.000 C 
ENDROOT
TORSDOF 0
ENDMDL
MODEL 2
REMARK VINA RESULT:      -4.4      1.156      2.571
REMARK  Name = .\Carvone.pdb
REMARK  3 active torsions:
REMARK  status: ('A' for Active; 'I' for Inactive)
REMARK    1  A    between atoms: C1_1  and  C2_2
REMARK    2  A    between atoms: C7_8  and  C8_9
REMARK    3  A    between atoms: C7_8  and  C9_10
REMARK                            x       y       z     vdW  Elec       q    Type
REMARK                         _______ _______ _______ _____ _____    ______ ____
ROOT
ATOM      1  C1  UNL     1       2.976  54.211 -24.626  0.00  0.00    +0.000 C 
ATOM      2  C2  UNL     1       1.469  54.150 -24.562  0.00  0.00    +0.000 C 
ATOM      3  C3  UNL     1       0.797  54.313 -25.712  0.00  0.00    +0.000 C 
ATOM      4  C4  UNL     1      -0.666  54.269 -25.750  0.00  0.00    +0.000 C 
ATOM      5  O1  UNL     1      -1.275  54.425 -26.841  0.00  0.00    +0.000 OA
ATOM      6  C5  UNL     1      -1.415  54.046 -24.517  0.00  0.00    +0.000 C 
ATOM      7  C6  UNL     1      -0.776  53.880 -23.359  0.00  0.00    +0.000 C 
ATOM      8  C7  UNL     1       0.742  53.909 -23.224  0.00  0.00    +0.000 C 
ATOM      9  C8  UNL     1       1.092  55.040 -22.237  0.00  0.00    +0.000 C 
ATOM     10  C9  UNL     1       1.176  52.552 -22.638  0.00  0.00    +0.000 C 
ENDROOT
TORSDOF 0
ENDMDL
MODEL 3
REMARK VINA RESULT:      -3.8      1.869      2.877
REMARK  Name = .\Carvone.pdb
REMARK  3 active torsions:
REMARK  status: ('A' for Active; 'I' for Inactive)
REMARK    1  A    between atoms: C1_1  and  C2_2
REMARK    2  A    between atoms: C7_8  and  C8_9
REMARK    3  A    between atoms: C7_8  and  C9_10
REMARK                            x       y       z     vdW  Elec       q    Type
REMARK                         _______ _______ _______ _____ _____    ______ ____
ROOT
ATOM      1  C1  UNL     1       3.140  52.721 -23.016  0.00  0.00    +0.000 C 
ATOM      2  C2  UNL     1       1.669  53.054 -22.962  0.00  0.00    +0.000 C 
ATOM      3  C3  UNL     1       0.876  52.231 -22.257  0.00  0.00    +0.000 C 
ATOM      4  C4  UNL     1      -0.563  52.471 -22.147  0.00  0.00    +0.000 C 
ATOM      5  O1  UNL     1      -1.287  51.685 -21.480  0.00  0.00    +0.000 OA
ATOM      6  C5  UNL     1      -1.157  53.627 -22.813  0.00  0.00    +0.000 C 
ATOM      7  C6  UNL     1      -0.396  54.464 -23.519  0.00  0.00    +0.000 C 
ATOM      8  C7  UNL     1       1.109  54.292 -23.689  0.00  0.00    +0.000 C 
ATOM      9  C8  UNL     1       1.388  54.172 -25.200  0.00  0.00    +0.000 C 
ATOM     10  C9  UNL     1       1.780  55.564 -23.134  0.00  0.00    +0.000 C 
ENDROOT
TORSDOF 0
ENDMDL
MODEL 4
REMARK VINA RESULT:      -3.8      1.978      3.203
REMARK  Name = .\Carvone.pdb
REMARK  3 active torsions:
REMARK  status: ('A' for Active; 'I' for Inactive)
REMARK    1  A    between atoms: C1_1  and  C2_2
REMARK    2  A    between atoms: C7_8  and  C8_9
REMARK    3  A    between atoms: C7_8  and  C9_10
REMARK                            x       y       z     vdW  Elec       q    Type
REMARK                         _______ _______ _______ _____ _____    ______ ____
ROOT
ATOM      1  C1  UNL     1       1.475  52.250 -21.177  0.00  0.00    +0.000 C 
ATOM      2  C2  UNL     1       0.815  52.946 -22.341  0.00  0.00    +0.000 C 
ATOM      3  C3  UNL     1       1.617  53.446 -23.295  0.00  0.00    +0.000 C 
ATOM      4  C4  UNL     1       1.069  54.139 -24.462  0.00  0.00    +0.000 C 
ATOM      5  O1  UNL     1       1.840  54.600 -25.344  0.00  0.00    +0.000 OA
ATOM      6  C5  UNL     1      -0.377  54.294 -24.599  0.00  0.00    +0.000 C 
ATOM      7  C6  UNL     1      -1.199  53.808 -23.670  0.00  0.00    +0.000 C 
ATOM      8  C7  UNL     1      -0.719  53.074 -22.423  0.00  0.00    +0.000 C 
ATOM      9  C8  UNL     1      -1.237  53.859 -21.201  0.00  0.00    +0.000 C 
ATOM     10  C9  UNL     1      -1.352  51.669 -22.446  0.00  0.00    +0.000 C 
ENDROOT
TORSDOF 0
ENDMDL
MODEL 5
REMARK VINA RESULT:      -3.8      2.875      4.377
REMARK  Name = .\Carvone.pdb
REMARK  3 active torsions:
REMARK  status: ('A' for Active; 'I' for Inactive)
REMARK    1  A    between atoms: C1_1  and  C2_2
REMARK    2  A    between atoms: C7_8  and  C8_9
REMARK    3  A    between atoms: C7_8  and  C9_10
REMARK                            x       y       z     vdW  Elec       q    Type
REMARK                         _______ _______ _______ _____ _____    ______ ____
ROOT
ATOM      1  C1  UNL     1       0.920  54.240 -25.415  0.00  0.00    +0.000 C 
ATOM      2  C2  UNL     1       1.689  54.602 -24.168  0.00  0.00    +0.000 C 
ATOM      3  C3  UNL     1       2.729  55.438 -24.307  0.00  0.00    +0.000 C 
ATOM      4  C4  UNL     1       3.535  55.847 -23.156  0.00  0.00    +0.000 C 
ATOM      5  O1  UNL     1       4.506  56.634 -23.310  0.00  0.00    +0.000 OA
ATOM      6  C5  UNL     1       3.208  55.339 -21.827  0.00  0.00    +0.000 C 
ATOM      7  C6  UNL     1       2.181  54.507 -21.656  0.00  0.00    +0.000 C 
ATOM      8  C7  UNL     1       1.288  54.028 -22.795  0.00  0.00    +0.000 C 
ATOM      9  C8  UNL     1       1.380  52.489 -22.833  0.00  0.00    +0.000 C 
ATOM     10  C9  UNL     1      -0.154  54.456 -22.459  0.00  0.00    +0.000 C 
ENDROOT
TORSDOF 0
ENDMDL
MODEL 6
REMARK VINA RESULT:      -3.6      2.559      4.090
REMARK  Name = .\Carvone.pdb
REMARK  3 active torsions:
REMARK  status: ('A' for Active; 'I' for Inactive)
REMARK    1  A    between atoms: C1_1  and  C2_2
REMARK    2  A    between atoms: C7_8  and  C8_9
REMARK    3  A    between atoms: C7_8  and  C9_10
REMARK                            x       y       z     vdW  Elec       q    Type
REMARK                         _______ _______ _______ _____ _____    ______ ____
ROOT
ATOM      1  C1  UNL     1      -0.503  54.973 -23.958  0.00  0.00    +0.000 C 
ATOM      2  C2  UNL     1       0.031  53.767 -23.223  0.00  0.00    +0.000 C 
ATOM      3  C3  UNL     1       1.328  53.468 -23.391  0.00  0.00    +0.000 C 
ATOM      4  C4  UNL     1       1.936  52.318 -22.720  0.00  0.00    +0.000 C 
ATOM      5  O1  UNL     1       3.156  52.056 -22.892  0.00  0.00    +0.000 OA
ATOM      6  C5  UNL     1       1.122  51.475 -21.848  0.00  0.00    +0.000 C 
ATOM      7  C6  UNL     1      -0.170  51.747 -21.660  0.00  0.00    +0.000 C 
ATOM      8  C7  UNL     1      -0.886  52.921 -22.318  0.00  0.00    +0.000 C 
ATOM      9  C8  UNL     1      -2.043  52.341 -23.155  0.00  0.00    +0.000 C 
ATOM     10  C9  UNL     1      -1.451  53.804 -21.188  0.00  0.00    +0.000 C 
ENDROOT
TORSDOF 0
ENDMDL
MODEL 7
REMARK VINA RESULT:      -3.5      2.122      3.136
REMARK  Name = .\Carvone.pdb
REMARK  3 active torsions:
REMARK  status: ('A' for Active; 'I' for Inactive)
REMARK    1  A    between atoms: C1_1  and  C2_2
REMARK    2  A    between atoms: C7_8  and  C8_9
REMARK    3  A    between atoms: C7_8  and  C9_10
REMARK                            x       y       z     vdW  Elec       q    Type
REMARK                         _______ _______ _______ _____ _____    ______ ____
ROOT
ATOM      1  C1  UNL     1      -1.180  53.497 -21.909  0.00  0.00    +0.000 C 
ATOM      2  C2  UNL     1       0.206  53.413 -22.499  0.00  0.00    +0.000 C 
ATOM      3  C3  UNL     1       0.459  54.159 -23.585  0.00  0.00    +0.000 C 
ATOM      4  C4  UNL     1       1.774  54.145 -24.228  0.00  0.00    +0.000 C 
ATOM      5  O1  UNL     1       1.988  54.854 -25.247  0.00  0.00    +0.000 OA
ATOM      6  C5  UNL     1       2.836  53.304 -23.683  0.00  0.00    +0.000 C 
ATOM      7  C6  UNL     1       2.617  52.552 -22.605  0.00  0.00    +0.000 C 
ATOM      8  C7  UNL     1       1.281  52.504 -21.871  0.00  0.00    +0.000 C 
ATOM      9  C8  UNL     1       0.797  51.041 -21.897  0.00  0.00    +0.000 C 
ATOM     10  C9  UNL     1       1.541  52.942 -20.417  0.00  0.00    +0.000 C 
ENDROOT
TORSDOF 0
ENDMDL
MODEL 8
REMARK VINA RESULT:      -3.5      2.492      3.979
REMARK  Name = .\Carvone.pdb
REMARK  3 active torsions:
REMARK  status: ('A' for Active; 'I' for Inactive)
REMARK    1  A    between atoms: C1_1  and  C2_2
REMARK    2  A    between atoms: C7_8  and  C8_9
REMARK    3  A    between atoms: C7_8  and  C9_10
REMARK                            x       y       z     vdW  Elec       q    Type
REMARK                         _______ _______ _______ _____ _____    ______ ____
ROOT
ATOM      1  C1  UNL     1       3.951  54.159 -24.787  0.00  0.00    +0.000 C 
ATOM      2  C2  UNL     1       2.817  53.616 -23.952  0.00  0.00    +0.000 C 
ATOM      3  C3  UNL     1       3.071  52.537 -23.195  0.00  0.00    +0.000 C 
ATOM      4  C4  UNL     1       2.035  51.938 -22.351  0.00  0.00    +0.000 C 
ATOM      5  O1  UNL     1       2.297  50.926 -21.649  0.00  0.00    +0.000 OA
ATOM      6  C5  UNL     1       0.697  52.520 -22.327  0.00  0.00    +0.000 C 
ATOM      7  C6  UNL     1       0.413  53.593 -23.067  0.00  0.00    +0.000 C 
ATOM      8  C7  UNL     1       1.427  54.281 -23.974  0.00  0.00    +0.000 C 
ATOM      9  C8  UNL     1       0.860  54.242 -25.407  0.00  0.00    +0.000 C 
ATOM     10  C9  UNL     1       1.547  55.742 -23.500  0.00  0.00    +0.000 C 
ENDROOT
TORSDOF 0
ENDMDL
MODEL 9
REMARK VINA RESULT:      -3.5      2.054      2.775
REMARK  Name = .\Carvone.pdb
REMARK  3 active torsions:
REMARK  status: ('A' for Active; 'I' for Inactive)
REMARK    1  A    between atoms: C1_1  and  C2_2
REMARK    2  A    between atoms: C7_8  and  C8_9
REMARK    3  A    between atoms: C7_8  and  C9_10
REMARK                            x       y       z     vdW  Elec       q    Type
REMARK                         _______ _______ _______ _____ _____    ______ ____
ROOT
ATOM      1  C1  UNL     1      -0.464  50.139 -20.935  0.00  0.00    +0.000 C 
ATOM      2  C2  UNL     1      -0.563  51.368 -21.805  0.00  0.00    +0.000 C 
ATOM      3  C3  UNL     1      -1.698  51.539 -22.502  0.00  0.00    +0.000 C 
ATOM      4  C4  UNL     1      -1.887  52.700 -23.373  0.00  0.00    +0.000 C 
ATOM      5  O1  UNL     1      -2.961  52.840 -24.017  0.00  0.00    +0.000 OA
ATOM      6  C5  UNL     1      -0.826  53.696 -23.493  0.00  0.00    +0.000 C 
ATOM      7  C6  UNL     1       0.313  53.554 -22.814  0.00  0.00    +0.000 C 
ATOM      8  C7  UNL     1       0.597  52.380 -21.885  0.00  0.00    +0.000 C 
ATOM      9  C8  UNL     1       1.861  51.673 -22.413  0.00  0.00    +0.000 C 
ATOM     10  C9  UNL     1       0.872  52.960 -20.484  0.00  0.00    +0.000 C 
ENDROOT
TORSDOF 0
ENDMDL
