MODEL 1
REMARK VINA RESULT:      -4.5      0.000      0.000
REMARK  Name = .\Carvacrol.pdb
REMARK  5 active torsions:
REMARK  status: ('A' for Active; 'I' for Inactive)
REMARK    1  A    between atoms: C1_1  and  C2_2
REMARK    2  A    between atoms: C2_2  and  C3_3
REMARK    3  A    between atoms: C2_2  and  C4_4
REMARK    4  A    between atoms: C6_6  and  O1_11
REMARK    5  A    between atoms: C7_7  and  C10_10
REMARK                            x       y       z     vdW  Elec       q    Type
REMARK                         _______ _______ _______ _____ _____    ______ ____
ROOT
ATOM      1  C4  UNL     1     -13.904  71.185 -13.906  0.00  0.00    +0.000 A 
ATOM      2  C5  UNL     1     -13.082  70.159 -14.402  0.00  0.00    +0.000 A 
ATOM      3  C6  UNL     1     -12.197  70.400 -15.463  0.00  0.00    +0.000 A 
ATOM      4  C7  UNL     1     -12.126  71.679 -16.042  0.00  0.00    +0.000 A 
ATOM      5  C8  UNL     1     -12.947  72.705 -15.548  0.00  0.00    +0.000 A 
ATOM      6  C9  UNL     1     -13.826  72.462 -14.491  0.00  0.00    +0.000 A 
ATOM      7  C10 UNL     1     -11.181  71.944 -17.179  0.00  0.00    +0.000 C 
ENDROOT
BRANCH   1   9
ATOM      8  C1  UNL     1     -14.372  69.722 -11.913  0.00  0.00    +0.000 C 
ATOM      9  C2  UNL     1     -14.855  70.907 -12.757  0.00  0.00    +0.000 C 
ATOM     10  C3  UNL     1     -15.057  72.156 -11.891  0.00  0.00    +0.000 C 
ENDBRANCH   1   9
BRANCH   3  11
ATOM     11  O1  UNL     1     -11.387  69.371 -15.945  0.00  0.00    +0.000 OA
ATOM     12  H14 UNL     1     -11.779  68.491 -16.262  0.00  0.00    +0.000 HD
ENDBRANCH   3  11
TORSDOF 2
ENDMDL
MODEL 2
REMARK VINA RESULT:      -4.5      1.473      2.324
REMARK  Name = .\Carvacrol.pdb
REMARK  5 active torsions:
REMARK  status: ('A' for Active; 'I' for Inactive)
REMARK    1  A    between atoms: C1_1  and  C2_2
REMARK    2  A    between atoms: C2_2  and  C3_3
REMARK    3  A    between atoms: C2_2  and  C4_4
REMARK    4  A    between atoms: C6_6  and  O1_11
REMARK    5  A    between atoms: C7_7  and  C10_10
REMARK                            x       y       z     vdW  Elec       q    Type
REMARK                         _______ _______ _______ _____ _____    ______ ____
ROOT
ATOM      1  C4  UNL     1     -13.443  69.912 -14.421  0.00  0.00    +0.000 A 
ATOM      2  C5  UNL     1     -12.344  69.859 -15.295  0.00  0.00    +0.000 A 
ATOM      3  C6  UNL     1     -11.847  71.027 -15.892  0.00  0.00    +0.000 A 
ATOM      4  C7  UNL     1     -12.450  72.267 -15.618  0.00  0.00    +0.000 A 
ATOM      5  C8  UNL     1     -13.547  72.322 -14.745  0.00  0.00    +0.000 A 
ATOM      6  C9  UNL     1     -14.039  71.156 -14.152  0.00  0.00    +0.000 A 
ATOM      7  C10 UNL     1     -11.923  73.522 -16.253  0.00  0.00    +0.000 C 
ENDROOT
BRANCH   1   9
ATOM      8  C1  UNL     1     -15.483  68.716 -13.560  0.00  0.00    +0.000 C 
ATOM      9  C2  UNL     1     -13.968  68.638 -13.784  0.00  0.00    +0.000 C 
ATOM     10  C3  UNL     1     -13.596  67.407 -14.619  0.00  0.00    +0.000 C 
ENDBRANCH   1   9
BRANCH   3  11
ATOM     11  O1  UNL     1     -10.756  70.958 -16.759  0.00  0.00    +0.000 OA
ATOM     12  H14 UNL     1      -9.884  71.434 -16.554  0.00  0.00    +0.000 HD
ENDBRANCH   3  11
TORSDOF 2
ENDMDL
MODEL 3
REMARK VINA RESULT:      -4.4      1.375      3.953
REMARK  Name = .\Carvacrol.pdb
REMARK  5 active torsions:
REMARK  status: ('A' for Active; 'I' for Inactive)
REMARK    1  A    between atoms: C1_1  and  C2_2
REMARK    2  A    between atoms: C2_2  and  C3_3
REMARK    3  A    between atoms: C2_2  and  C4_4
REMARK    4  A    between atoms: C6_6  and  O1_11
REMARK    5  A    between atoms: C7_7  and  C10_10
REMARK                            x       y       z     vdW  Elec       q    Type
REMARK                         _______ _______ _______ _____ _____    ______ ____
ROOT
ATOM      1  C4  UNL     1     -12.482  71.589 -15.522  0.00  0.00    +0.000 A 
ATOM      2  C5  UNL     1     -12.217  70.234 -15.785  0.00  0.00    +0.000 A 
ATOM      3  C6  UNL     1     -12.913  69.223 -15.106  0.00  0.00    +0.000 A 
ATOM      4  C7  UNL     1     -13.887  69.562 -14.150  0.00  0.00    +0.000 A 
ATOM      5  C8  UNL     1     -14.153  70.914 -13.886  0.00  0.00    +0.000 A 
ATOM      6  C9  UNL     1     -13.458  71.918 -14.565  0.00  0.00    +0.000 A 
ATOM      7  C10 UNL     1     -14.636  68.485 -13.418  0.00  0.00    +0.000 C 
ENDROOT
BRANCH   1   9
ATOM      8  C1  UNL     1     -11.838  72.484 -17.784  0.00  0.00    +0.000 C 
ATOM      9  C2  UNL     1     -11.720  72.669 -16.266  0.00  0.00    +0.000 C 
ATOM     10  C3  UNL     1     -12.186  74.067 -15.842  0.00  0.00    +0.000 C 
ENDBRANCH   1   9
BRANCH   3  11
ATOM     11  O1  UNL     1     -12.639  67.883 -15.377  0.00  0.00    +0.000 OA
ATOM     12  H14 UNL     1     -13.153  67.367 -16.082  0.00  0.00    +0.000 HD
ENDBRANCH   3  11
TORSDOF 2
ENDMDL
MODEL 4
REMARK VINA RESULT:      -4.4      2.008      4.392
REMARK  Name = .\Carvacrol.pdb
REMARK  5 active torsions:
REMARK  status: ('A' for Active; 'I' for Inactive)
REMARK    1  A    between atoms: C1_1  and  C2_2
REMARK    2  A    between atoms: C2_2  and  C3_3
REMARK    3  A    between atoms: C2_2  and  C4_4
REMARK    4  A    between atoms: C6_6  and  O1_11
REMARK    5  A    between atoms: C7_7  and  C10_10
REMARK                            x       y       z     vdW  Elec       q    Type
REMARK                         _______ _______ _______ _____ _____    ______ ____
ROOT
ATOM      1  C4  UNL     1     -12.378  71.543 -15.611  0.00  0.00    +0.000 A 
ATOM      2  C5  UNL     1     -13.450  71.815 -14.744  0.00  0.00    +0.000 A 
ATOM      3  C6  UNL     1     -14.114  70.775 -14.077  0.00  0.00    +0.000 A 
ATOM      4  C7  UNL     1     -13.708  69.443 -14.274  0.00  0.00    +0.000 A 
ATOM      5  C8  UNL     1     -12.638  69.169 -15.139  0.00  0.00    +0.000 A 
ATOM      6  C9  UNL     1     -11.979  70.208 -15.802  0.00  0.00    +0.000 A 
ATOM      7  C10 UNL     1     -14.414  68.324 -13.563  0.00  0.00    +0.000 C 
ENDROOT
BRANCH   1   9
ATOM      8  C1  UNL     1     -11.803  72.545 -17.846  0.00  0.00    +0.000 C 
ATOM      9  C2  UNL     1     -11.672  72.680 -16.325  0.00  0.00    +0.000 C 
ATOM     10  C3  UNL     1     -12.190  74.041 -15.845  0.00  0.00    +0.000 C 
ENDBRANCH   1   9
BRANCH   3  11
ATOM     11  O1  UNL     1     -15.177  71.061 -13.220  0.00  0.00    +0.000 OA
ATOM     12  H14 UNL     1     -15.536  72.003 -13.115  0.00  0.00    +0.000 HD
ENDBRANCH   3  11
TORSDOF 2
ENDMDL
MODEL 5
REMARK VINA RESULT:      -4.3      1.559      3.025
REMARK  Name = .\Carvacrol.pdb
REMARK  5 active torsions:
REMARK  status: ('A' for Active; 'I' for Inactive)
REMARK    1  A    between atoms: C1_1  and  C2_2
REMARK    2  A    between atoms: C2_2  and  C3_3
REMARK    3  A    between atoms: C2_2  and  C4_4
REMARK    4  A    between atoms: C6_6  and  O1_11
REMARK    5  A    between atoms: C7_7  and  C10_10
REMARK                            x       y       z     vdW  Elec       q    Type
REMARK                         _______ _______ _______ _____ _____    ______ ____
ROOT
ATOM      1  C4  UNL     1     -13.427  72.838 -14.918  0.00  0.00    +0.000 A 
ATOM      2  C5  UNL     1     -12.405  72.658 -15.866  0.00  0.00    +0.000 A 
ATOM      3  C6  UNL     1     -11.834  71.393 -16.072  0.00  0.00    +0.000 A 
ATOM      4  C7  UNL     1     -12.284  70.290 -15.326  0.00  0.00    +0.000 A 
ATOM      5  C8  UNL     1     -13.304  70.467 -14.378  0.00  0.00    +0.000 A 
ATOM      6  C9  UNL     1     -13.870  71.728 -14.176  0.00  0.00    +0.000 A 
ATOM      7  C10 UNL     1     -11.677  68.932 -15.541  0.00  0.00    +0.000 C 
ENDROOT
BRANCH   1   9
ATOM      8  C1  UNL     1     -14.989  74.217 -13.508  0.00  0.00    +0.000 C 
ATOM      9  C2  UNL     1     -14.033  74.212 -14.707  0.00  0.00    +0.000 C 
ATOM     10  C3  UNL     1     -12.943  75.280 -14.550  0.00  0.00    +0.000 C 
ENDBRANCH   1   9
BRANCH   3  11
ATOM     11  O1  UNL     1     -10.820  71.230 -17.016  0.00  0.00    +0.000 OA
ATOM     12  H14 UNL     1     -10.941  71.517 -17.981  0.00  0.00    +0.000 HD
ENDBRANCH   3  11
TORSDOF 2
ENDMDL
MODEL 6
REMARK VINA RESULT:      -4.2      2.262      3.128
REMARK  Name = .\Carvacrol.pdb
REMARK  5 active torsions:
REMARK  status: ('A' for Active; 'I' for Inactive)
REMARK    1  A    between atoms: C1_1  and  C2_2
REMARK    2  A    between atoms: C2_2  and  C3_3
REMARK    3  A    between atoms: C2_2  and  C4_4
REMARK    4  A    between atoms: C6_6  and  O1_11
REMARK    5  A    between atoms: C7_7  and  C10_10
REMARK                            x       y       z     vdW  Elec       q    Type
REMARK                         _______ _______ _______ _____ _____    ______ ____
ROOT
ATOM      1  C4  UNL     1     -13.772  68.926 -14.337  0.00  0.00    +0.000 A 
ATOM      2  C5  UNL     1     -14.314  70.170 -13.971  0.00  0.00    +0.000 A 
ATOM      3  C6  UNL     1     -13.773  71.363 -14.472  0.00  0.00    +0.000 A 
ATOM      4  C7  UNL     1     -12.676  71.322 -15.350  0.00  0.00    +0.000 A 
ATOM      5  C8  UNL     1     -12.133  70.081 -15.717  0.00  0.00    +0.000 A 
ATOM      6  C9  UNL     1     -12.675  68.895 -15.216  0.00  0.00    +0.000 A 
ATOM      7  C10 UNL     1     -12.091  72.595 -15.890  0.00  0.00    +0.000 C 
ENDROOT
BRANCH   1   9
ATOM      8  C1  UNL     1     -13.474  66.440 -14.094  0.00  0.00    +0.000 C 
ATOM      9  C2  UNL     1     -14.370  67.645 -13.786  0.00  0.00    +0.000 C 
ATOM     10  C3  UNL     1     -14.639  67.763 -12.281  0.00  0.00    +0.000 C 
ENDBRANCH   1   9
BRANCH   3  11
ATOM     11  O1  UNL     1     -14.322  72.590 -14.098  0.00  0.00    +0.000 OA
ATOM     12  H14 UNL     1     -14.118  73.011 -13.199  0.00  0.00    +0.000 HD
ENDBRANCH   3  11
TORSDOF 2
ENDMDL
MODEL 7
REMARK VINA RESULT:      -4.2      1.696      2.537
REMARK  Name = .\Carvacrol.pdb
REMARK  5 active torsions:
REMARK  status: ('A' for Active; 'I' for Inactive)
REMARK    1  A    between atoms: C1_1  and  C2_2
REMARK    2  A    between atoms: C2_2  and  C3_3
REMARK    3  A    between atoms: C2_2  and  C4_4
REMARK    4  A    between atoms: C6_6  and  O1_11
REMARK    5  A    between atoms: C7_7  and  C10_10
REMARK                            x       y       z     vdW  Elec       q    Type
REMARK                         _______ _______ _______ _____ _____    ______ ____
ROOT
ATOM      1  C4  UNL     1     -13.474  70.381 -14.064  0.00  0.00    +0.000 A 
ATOM      2  C5  UNL     1     -13.691  71.752 -14.283  0.00  0.00    +0.000 A 
ATOM      3  C6  UNL     1     -13.019  72.428 -15.311  0.00  0.00    +0.000 A 
ATOM      4  C7  UNL     1     -12.116  71.734 -16.135  0.00  0.00    +0.000 A 
ATOM      5  C8  UNL     1     -11.897  70.365 -15.919  0.00  0.00    +0.000 A 
ATOM      6  C9  UNL     1     -12.569  69.694 -14.894  0.00  0.00    +0.000 A 
ATOM      7  C10 UNL     1     -11.392  72.452 -17.238  0.00  0.00    +0.000 C 
ENDROOT
BRANCH   1   9
ATOM      8  C1  UNL     1     -15.577  70.306 -12.686  0.00  0.00    +0.000 C 
ATOM      9  C2  UNL     1     -14.210  69.664 -12.947  0.00  0.00    +0.000 C 
ATOM     10  C3  UNL     1     -14.350  68.167 -13.248  0.00  0.00    +0.000 C 
ENDBRANCH   1   9
BRANCH   3  11
ATOM     11  O1  UNL     1     -13.244  73.790 -15.515  0.00  0.00    +0.000 OA
ATOM     12  H14 UNL     1     -12.679  74.331 -16.160  0.00  0.00    +0.000 HD
ENDBRANCH   3  11
TORSDOF 2
ENDMDL
MODEL 8
REMARK VINA RESULT:      -4.1      1.547      3.410
REMARK  Name = .\Carvacrol.pdb
REMARK  5 active torsions:
REMARK  status: ('A' for Active; 'I' for Inactive)
REMARK    1  A    between atoms: C1_1  and  C2_2
REMARK    2  A    between atoms: C2_2  and  C3_3
REMARK    3  A    between atoms: C2_2  and  C4_4
REMARK    4  A    between atoms: C6_6  and  O1_11
REMARK    5  A    between atoms: C7_7  and  C10_10
REMARK                            x       y       z     vdW  Elec       q    Type
REMARK                         _______ _______ _______ _____ _____    ______ ____
ROOT
ATOM      1  C4  UNL     1     -13.622  71.204 -14.221  0.00  0.00    +0.000 A 
ATOM      2  C5  UNL     1     -12.771  70.426 -15.025  0.00  0.00    +0.000 A 
ATOM      3  C6  UNL     1     -12.914  69.032 -15.078  0.00  0.00    +0.000 A 
ATOM      4  C7  UNL     1     -13.916  68.399 -14.322  0.00  0.00    +0.000 A 
ATOM      5  C8  UNL     1     -14.767  69.174 -13.519  0.00  0.00    +0.000 A 
ATOM      6  C9  UNL     1     -14.622  70.563 -13.469  0.00  0.00    +0.000 A 
ATOM      7  C10 UNL     1     -14.075  66.906 -14.374  0.00  0.00    +0.000 C 
ENDROOT
BRANCH   1   9
ATOM      8  C1  UNL     1     -13.133  73.274 -15.565  0.00  0.00    +0.000 C 
ATOM      9  C2  UNL     1     -13.454  72.712 -14.176  0.00  0.00    +0.000 C 
ATOM     10  C3  UNL     1     -14.693  73.389 -13.579  0.00  0.00    +0.000 C 
ENDBRANCH   1   9
BRANCH   3  11
ATOM     11  O1  UNL     1     -12.061  68.273 -15.879  0.00  0.00    +0.000 OA
ATOM     12  H14 UNL     1     -11.696  68.630 -16.755  0.00  0.00    +0.000 HD
ENDBRANCH   3  11
TORSDOF 2
ENDMDL
MODEL 9
REMARK VINA RESULT:      -4.1      2.567      4.053
REMARK  Name = .\Carvacrol.pdb
REMARK  5 active torsions:
REMARK  status: ('A' for Active; 'I' for Inactive)
REMARK    1  A    between atoms: C1_1  and  C2_2
REMARK    2  A    between atoms: C2_2  and  C3_3
REMARK    3  A    between atoms: C2_2  and  C4_4
REMARK    4  A    between atoms: C6_6  and  O1_11
REMARK    5  A    between atoms: C7_7  and  C10_10
REMARK                            x       y       z     vdW  Elec       q    Type
REMARK                         _______ _______ _______ _____ _____    ______ ____
ROOT
ATOM      1  C4  UNL     1     -14.097  70.236 -13.335  0.00  0.00    +0.000 A 
ATOM      2  C5  UNL     1     -14.437  69.285 -12.357  0.00  0.00    +0.000 A 
ATOM      3  C6  UNL     1     -14.362  67.912 -12.636  0.00  0.00    +0.000 A 
ATOM      4  C7  UNL     1     -13.944  67.476 -13.906  0.00  0.00    +0.000 A 
ATOM      5  C8  UNL     1     -13.604  68.424 -14.883  0.00  0.00    +0.000 A 
ATOM      6  C9  UNL     1     -13.680  69.790 -14.601  0.00  0.00    +0.000 A 
ATOM      7  C10 UNL     1     -13.862  66.008 -14.212  0.00  0.00    +0.000 C 
ENDROOT
BRANCH   1   9
ATOM      8  C1  UNL     1     -13.850  72.567 -14.246  0.00  0.00    +0.000 C 
ATOM      9  C2  UNL     1     -14.184  71.716 -13.015  0.00  0.00    +0.000 C 
ATOM     10  C3  UNL     1     -15.562  72.081 -12.449  0.00  0.00    +0.000 C 
ENDBRANCH   1   9
BRANCH   3  11
ATOM     11  O1  UNL     1     -14.704  66.980 -11.656  0.00  0.00    +0.000 OA
ATOM     12  H14 UNL     1     -15.551  67.073 -11.107  0.00  0.00    +0.000 HD
ENDBRANCH   3  11
TORSDOF 2
ENDMDL
