MODEL 1
REMARK VINA RESULT:      -4.3      0.000      0.000
REMARK  Name = .\Carvone.pdb
REMARK  3 active torsions:
REMARK  status: ('A' for Active; 'I' for Inactive)
REMARK    1  A    between atoms: C1_1  and  C2_2
REMARK    2  A    between atoms: C7_8  and  C8_9
REMARK    3  A    between atoms: C7_8  and  C9_10
REMARK                            x       y       z     vdW  Elec       q    Type
REMARK                         _______ _______ _______ _____ _____    ______ ____
ROOT
ATOM      1  C1  UNL     1      -4.606  66.965 111.457  0.00  0.00    +0.000 C 
ATOM      2  C2  UNL     1      -3.705  67.618 110.437  0.00  0.00    +0.000 C 
ATOM      3  C3  UNL     1      -3.491  66.953 109.291  0.00  0.00    +0.000 C 
ATOM      4  C4  UNL     1      -2.632  67.506 108.242  0.00  0.00    +0.000 C 
ATOM      5  O1  UNL     1      -2.446  66.865 107.174  0.00  0.00    +0.000 OA
ATOM      6  C5  UNL     1      -1.992  68.803 108.439  0.00  0.00    +0.000 C 
ATOM      7  C6  UNL     1      -2.186  69.487 109.567  0.00  0.00    +0.000 C 
ATOM      8  C7  UNL     1      -3.062  68.991 110.711  0.00  0.00    +0.000 C 
ATOM      9  C8  UNL     1      -2.170  68.901 111.965  0.00  0.00    +0.000 C 
ATOM     10  C9  UNL     1      -4.167  70.043 110.932  0.00  0.00    +0.000 C 
ENDROOT
TORSDOF 0
ENDMDL
MODEL 2
REMARK VINA RESULT:      -4.3      4.427      5.880
REMARK  Name = .\Carvone.pdb
REMARK  3 active torsions:
REMARK  status: ('A' for Active; 'I' for Inactive)
REMARK    1  A    between atoms: C1_1  and  C2_2
REMARK    2  A    between atoms: C7_8  and  C8_9
REMARK    3  A    between atoms: C7_8  and  C9_10
REMARK                            x       y       z     vdW  Elec       q    Type
REMARK                         _______ _______ _______ _____ _____    ______ ____
ROOT
ATOM      1  C1  UNL     1      -2.242  73.884 112.707  0.00  0.00    +0.000 C 
ATOM      2  C2  UNL     1      -3.084  73.512 111.510  0.00  0.00    +0.000 C 
ATOM      3  C3  UNL     1      -4.010  74.397 111.110  0.00  0.00    +0.000 C 
ATOM      4  C4  UNL     1      -4.874  74.126 109.960  0.00  0.00    +0.000 C 
ATOM      5  O1  UNL     1      -5.736  74.972 109.602  0.00  0.00    +0.000 OA
ATOM      6  C5  UNL     1      -4.732  72.870 109.229  0.00  0.00    +0.000 C 
ATOM      7  C6  UNL     1      -3.821  71.971 109.601  0.00  0.00    +0.000 C 
ATOM      8  C7  UNL     1      -2.880  72.168 110.784  0.00  0.00    +0.000 C 
ATOM      9  C8  UNL     1      -3.132  71.008 111.768  0.00  0.00    +0.000 C 
ATOM     10  C9  UNL     1      -1.440  72.088 110.242  0.00  0.00    +0.000 C 
ENDROOT
TORSDOF 0
ENDMDL
MODEL 3
REMARK VINA RESULT:      -4.2      5.036      6.352
REMARK  Name = .\Carvone.pdb
REMARK  3 active torsions:
REMARK  status: ('A' for Active; 'I' for Inactive)
REMARK    1  A    between atoms: C1_1  and  C2_2
REMARK    2  A    between atoms: C7_8  and  C8_9
REMARK    3  A    between atoms: C7_8  and  C9_10
REMARK                            x       y       z     vdW  Elec       q    Type
REMARK                         _______ _______ _______ _____ _____    ______ ____
ROOT
ATOM      1  C1  UNL     1      -4.509  71.468 110.449  0.00  0.00    +0.000 C 
ATOM      2  C2  UNL     1      -4.250  72.950 110.322  0.00  0.00    +0.000 C 
ATOM      3  C3  UNL     1      -5.203  73.693 109.738  0.00  0.00    +0.000 C 
ATOM      4  C4  UNL     1      -5.043  75.139 109.569  0.00  0.00    +0.000 C 
ATOM      5  O1  UNL     1      -5.950  75.816 109.019  0.00  0.00    +0.000 OA
ATOM      6  C5  UNL     1      -3.825  75.791 110.042  0.00  0.00    +0.000 C 
ATOM      7  C6  UNL     1      -2.861  75.081 110.627  0.00  0.00    +0.000 C 
ATOM      8  C7  UNL     1      -2.941  73.574 110.844  0.00  0.00    +0.000 C 
ATOM      9  C8  UNL     1      -1.741  72.941 110.112  0.00  0.00    +0.000 C 
ATOM     10  C9  UNL     1      -2.819  73.322 112.360  0.00  0.00    +0.000 C 
ENDROOT
TORSDOF 0
ENDMDL
MODEL 4
REMARK VINA RESULT:      -4.2      3.346      4.395
REMARK  Name = .\Carvone.pdb
REMARK  3 active torsions:
REMARK  status: ('A' for Active; 'I' for Inactive)
REMARK    1  A    between atoms: C1_1  and  C2_2
REMARK    2  A    between atoms: C7_8  and  C8_9
REMARK    3  A    between atoms: C7_8  and  C9_10
REMARK                            x       y       z     vdW  Elec       q    Type
REMARK                         _______ _______ _______ _____ _____    ______ ____
ROOT
ATOM      1  C1  UNL     1      -2.703  69.404 111.455  0.00  0.00    +0.000 C 
ATOM      2  C2  UNL     1      -2.824  70.794 110.879  0.00  0.00    +0.000 C 
ATOM      3  C3  UNL     1      -4.026  71.163 110.409  0.00  0.00    +0.000 C 
ATOM      4  C4  UNL     1      -4.242  72.491 109.832  0.00  0.00    +0.000 C 
ATOM      5  O1  UNL     1      -5.378  72.815 109.396  0.00  0.00    +0.000 OA
ATOM      6  C5  UNL     1      -3.133  73.438 109.763  0.00  0.00    +0.000 C 
ATOM      7  C6  UNL     1      -1.928  73.102 110.222  0.00  0.00    +0.000 C 
ATOM      8  C7  UNL     1      -1.611  71.744 110.838  0.00  0.00    +0.000 C 
ATOM      9  C8  UNL     1      -0.488  71.109 109.995  0.00  0.00    +0.000 C 
ATOM     10  C9  UNL     1      -1.107  71.998 112.272  0.00  0.00    +0.000 C 
ENDROOT
TORSDOF 0
ENDMDL
MODEL 5
REMARK VINA RESULT:      -4.2      2.259      3.251
REMARK  Name = .\Carvone.pdb
REMARK  3 active torsions:
REMARK  status: ('A' for Active; 'I' for Inactive)
REMARK    1  A    between atoms: C1_1  and  C2_2
REMARK    2  A    between atoms: C7_8  and  C8_9
REMARK    3  A    between atoms: C7_8  and  C9_10
REMARK                            x       y       z     vdW  Elec       q    Type
REMARK                         _______ _______ _______ _____ _____    ______ ____
ROOT
ATOM      1  C1  UNL     1      -4.886  67.145 111.111  0.00  0.00    +0.000 C 
ATOM      2  C2  UNL     1      -3.893  68.212 110.721  0.00  0.00    +0.000 C 
ATOM      3  C3  UNL     1      -4.164  69.473 111.093  0.00  0.00    +0.000 C 
ATOM      4  C4  UNL     1      -3.260  70.575 110.761  0.00  0.00    +0.000 C 
ATOM      5  O1  UNL     1      -3.536  71.750 111.121  0.00  0.00    +0.000 OA
ATOM      6  C5  UNL     1      -2.038  70.306 110.009  0.00  0.00    +0.000 C 
ATOM      7  C6  UNL     1      -1.740  69.065 109.626  0.00  0.00    +0.000 C 
ATOM      8  C7  UNL     1      -2.620  67.857 109.927  0.00  0.00    +0.000 C 
ATOM      9  C8  UNL     1      -3.015  67.230 108.575  0.00  0.00    +0.000 C 
ATOM     10  C9  UNL     1      -1.769  66.860 110.736  0.00  0.00    +0.000 C 
ENDROOT
TORSDOF 0
ENDMDL
MODEL 6
REMARK VINA RESULT:      -4.0      5.126      6.531
REMARK  Name = .\Carvone.pdb
REMARK  3 active torsions:
REMARK  status: ('A' for Active; 'I' for Inactive)
REMARK    1  A    between atoms: C1_1  and  C2_2
REMARK    2  A    between atoms: C7_8  and  C8_9
REMARK    3  A    between atoms: C7_8  and  C9_10
REMARK                            x       y       z     vdW  Elec       q    Type
REMARK                         _______ _______ _______ _____ _____    ______ ____
ROOT
ATOM      1  C1  UNL     1      -6.875  74.730 110.145  0.00  0.00    +0.000 C 
ATOM      2  C2  UNL     1      -5.415  74.392 109.966  0.00  0.00    +0.000 C 
ATOM      3  C3  UNL     1      -5.070  73.096 110.034  0.00  0.00    +0.000 C 
ATOM      4  C4  UNL     1      -3.678  72.671 109.872  0.00  0.00    +0.000 C 
ATOM      5  O1  UNL     1      -3.378  71.450 109.939  0.00  0.00    +0.000 OA
ATOM      6  C5  UNL     1      -2.640  73.669 109.634  0.00  0.00    +0.000 C 
ATOM      7  C6  UNL     1      -2.951  74.963 109.561  0.00  0.00    +0.000 C 
ATOM      8  C7  UNL     1      -4.370  75.497 109.717  0.00  0.00    +0.000 C 
ATOM      9  C8  UNL     1      -4.363  76.477 110.907  0.00  0.00    +0.000 C 
ATOM     10  C9  UNL     1      -4.720  76.254 108.420  0.00  0.00    +0.000 C 
ENDROOT
TORSDOF 0
ENDMDL
MODEL 7
REMARK VINA RESULT:      -4.0      2.877      4.500
REMARK  Name = .\Carvone.pdb
REMARK  3 active torsions:
REMARK  status: ('A' for Active; 'I' for Inactive)
REMARK    1  A    between atoms: C1_1  and  C2_2
REMARK    2  A    between atoms: C7_8  and  C8_9
REMARK    3  A    between atoms: C7_8  and  C9_10
REMARK                            x       y       z     vdW  Elec       q    Type
REMARK                         _______ _______ _______ _____ _____    ______ ____
ROOT
ATOM      1  C1  UNL     1       0.442  70.669 109.628  0.00  0.00    +0.000 C 
ATOM      2  C2  UNL     1      -0.984  70.627 110.119  0.00  0.00    +0.000 C 
ATOM      3  C3  UNL     1      -1.518  71.777 110.559  0.00  0.00    +0.000 C 
ATOM      4  C4  UNL     1      -2.894  71.836 111.054  0.00  0.00    +0.000 C 
ATOM      5  O1  UNL     1      -3.374  72.927 111.462  0.00  0.00    +0.000 OA
ATOM      6  C5  UNL     1      -3.708  70.624 111.074  0.00  0.00    +0.000 C 
ATOM      7  C6  UNL     1      -3.207  69.466 110.643  0.00  0.00    +0.000 C 
ATOM      8  C7  UNL     1      -1.787  69.311 110.111  0.00  0.00    +0.000 C 
ATOM      9  C8  UNL     1      -1.077  68.269 110.999  0.00  0.00    +0.000 C 
ATOM     10  C9  UNL     1      -1.894  68.781 108.668  0.00  0.00    +0.000 C 
ENDROOT
TORSDOF 0
ENDMDL
MODEL 8
REMARK VINA RESULT:      -4.0      6.294      7.824
REMARK  Name = .\Carvone.pdb
REMARK  3 active torsions:
REMARK  status: ('A' for Active; 'I' for Inactive)
REMARK    1  A    between atoms: C1_1  and  C2_2
REMARK    2  A    between atoms: C7_8  and  C8_9
REMARK    3  A    between atoms: C7_8  and  C9_10
REMARK                            x       y       z     vdW  Elec       q    Type
REMARK                         _______ _______ _______ _____ _____    ______ ____
ROOT
ATOM      1  C1  UNL     1      -2.899  74.008 111.735  0.00  0.00    +0.000 C 
ATOM      2  C2  UNL     1      -3.523  74.896 110.687  0.00  0.00    +0.000 C 
ATOM      3  C3  UNL     1      -2.790  75.929 110.240  0.00  0.00    +0.000 C 
ATOM      4  C4  UNL     1      -3.310  76.846 109.224  0.00  0.00    +0.000 C 
ATOM      5  O1  UNL     1      -2.605  77.808 108.819  0.00  0.00    +0.000 OA
ATOM      6  C5  UNL     1      -4.650  76.640 108.681  0.00  0.00    +0.000 C 
ATOM      7  C6  UNL     1      -5.401  75.624 109.104  0.00  0.00    +0.000 C 
ATOM      8  C7  UNL     1      -4.944  74.621 110.157  0.00  0.00    +0.000 C 
ATOM      9  C8  UNL     1      -5.950  74.690 111.323  0.00  0.00    +0.000 C 
ATOM     10  C9  UNL     1      -4.991  73.223 109.510  0.00  0.00    +0.000 C 
ENDROOT
TORSDOF 0
ENDMDL
MODEL 9
REMARK VINA RESULT:      -3.9      3.005      4.359
REMARK  Name = .\Carvone.pdb
REMARK  3 active torsions:
REMARK  status: ('A' for Active; 'I' for Inactive)
REMARK    1  A    between atoms: C1_1  and  C2_2
REMARK    2  A    between atoms: C7_8  and  C8_9
REMARK    3  A    between atoms: C7_8  and  C9_10
REMARK                            x       y       z     vdW  Elec       q    Type
REMARK                         _______ _______ _______ _____ _____    ______ ____
ROOT
ATOM      1  C1  UNL     1       0.050  69.781 110.733  0.00  0.00    +0.000 C 
ATOM      2  C2  UNL     1      -1.266  70.510 110.611  0.00  0.00    +0.000 C 
ATOM      3  C3  UNL     1      -1.218  71.827 110.357  0.00  0.00    +0.000 C 
ATOM      4  C4  UNL     1      -2.442  72.619 110.221  0.00  0.00    +0.000 C 
ATOM      5  O1  UNL     1      -2.374  73.853 109.982  0.00  0.00    +0.000 OA
ATOM      6  C5  UNL     1      -3.743  71.971 110.364  0.00  0.00    +0.000 C 
ATOM      7  C6  UNL     1      -3.823  70.665 110.616  0.00  0.00    +0.000 C 
ATOM      8  C7  UNL     1      -2.604  69.762 110.773  0.00  0.00    +0.000 C 
ATOM      9  C8  UNL     1      -2.676  69.136 112.180  0.00  0.00    +0.000 C 
ATOM     10  C9  UNL     1      -2.711  68.658 109.704  0.00  0.00    +0.000 C 
ENDROOT
TORSDOF 0
ENDMDL
