MODEL 1
REMARK VINA RESULT:      -3.7      0.000      0.000
REMARK  Name = .\Carvone.pdb
REMARK  3 active torsions:
REMARK  status: ('A' for Active; 'I' for Inactive)
REMARK    1  A    between atoms: C1_1  and  C2_2
REMARK    2  A    between atoms: C7_8  and  C8_9
REMARK    3  A    between atoms: C7_8  and  C9_10
REMARK                            x       y       z     vdW  Elec       q    Type
REMARK                         _______ _______ _______ _____ _____    ______ ____
ROOT
ATOM      1  C1  UNL     1      15.692  94.608  85.355  0.00  0.00    +0.000 C 
ATOM      2  C2  UNL     1      15.304  93.160  85.178  0.00  0.00    +0.000 C 
ATOM      3  C3  UNL     1      14.108  92.781  85.655  0.00  0.00    +0.000 C 
ATOM      4  C4  UNL     1      13.644  91.398  85.531  0.00  0.00    +0.000 C 
ATOM      5  O1  UNL     1      12.518  91.065  85.985  0.00  0.00    +0.000 OA
ATOM      6  C5  UNL     1      14.493  90.406  84.877  0.00  0.00    +0.000 C 
ATOM      7  C6  UNL     1      15.686  90.752  84.393  0.00  0.00    +0.000 C 
ATOM      8  C7  UNL     1      16.250  92.165  84.477  0.00  0.00    +0.000 C 
ATOM      9  C8  UNL     1      17.579  92.083  85.255  0.00  0.00    +0.000 C 
ATOM     10  C9  UNL     1      16.518  92.638  83.035  0.00  0.00    +0.000 C 
ENDROOT
TORSDOF 0
ENDMDL
MODEL 2
REMARK VINA RESULT:      -3.4      1.092      2.563
REMARK  Name = .\Carvone.pdb
REMARK  3 active torsions:
REMARK  status: ('A' for Active; 'I' for Inactive)
REMARK    1  A    between atoms: C1_1  and  C2_2
REMARK    2  A    between atoms: C7_8  and  C8_9
REMARK    3  A    between atoms: C7_8  and  C9_10
REMARK                            x       y       z     vdW  Elec       q    Type
REMARK                         _______ _______ _______ _____ _____    ______ ____
ROOT
ATOM      1  C1  UNL     1      17.520  92.017  85.165  0.00  0.00    +0.000 C 
ATOM      2  C2  UNL     1      16.016  92.121  85.248  0.00  0.00    +0.000 C 
ATOM      3  C3  UNL     1      15.318  90.975  85.229  0.00  0.00    +0.000 C 
ATOM      4  C4  UNL     1      13.856  90.974  85.306  0.00  0.00    +0.000 C 
ATOM      5  O1  UNL     1      13.222  89.886  85.286  0.00  0.00    +0.000 OA
ATOM      6  C5  UNL     1      13.136  92.241  85.404  0.00  0.00    +0.000 C 
ATOM      7  C6  UNL     1      13.801  93.396  85.426  0.00  0.00    +0.000 C 
ATOM      8  C7  UNL     1      15.321  93.493  85.351  0.00  0.00    +0.000 C 
ATOM      9  C8  UNL     1      15.665  94.339  84.109  0.00  0.00    +0.000 C 
ATOM     10  C9  UNL     1      15.797  94.218  86.625  0.00  0.00    +0.000 C 
ENDROOT
TORSDOF 0
ENDMDL
MODEL 3
REMARK VINA RESULT:      -3.3      1.206      1.844
REMARK  Name = .\Carvone.pdb
REMARK  3 active torsions:
REMARK  status: ('A' for Active; 'I' for Inactive)
REMARK    1  A    between atoms: C1_1  and  C2_2
REMARK    2  A    between atoms: C7_8  and  C8_9
REMARK    3  A    between atoms: C7_8  and  C9_10
REMARK                            x       y       z     vdW  Elec       q    Type
REMARK                         _______ _______ _______ _____ _____    ______ ____
ROOT
ATOM      1  C1  UNL     1      12.835  94.467  85.795  0.00  0.00    +0.000 C 
ATOM      2  C2  UNL     1      13.660  93.234  85.520  0.00  0.00    +0.000 C 
ATOM      3  C3  UNL     1      13.028  92.050  85.556  0.00  0.00    +0.000 C 
ATOM      4  C4  UNL     1      13.744  90.798  85.302  0.00  0.00    +0.000 C 
ATOM      5  O1  UNL     1      13.131  89.699  85.341  0.00  0.00    +0.000 OA
ATOM      6  C5  UNL     1      15.173  90.830  85.003  0.00  0.00    +0.000 C 
ATOM      7  C6  UNL     1      15.828  91.990  84.959  0.00  0.00    +0.000 C 
ATOM      8  C7  UNL     1      15.166  93.340  85.210  0.00  0.00    +0.000 C 
ATOM      9  C8  UNL     1      15.892  93.992  86.404  0.00  0.00    +0.000 C 
ATOM     10  C9  UNL     1      15.373  94.194  83.944  0.00  0.00    +0.000 C 
ENDROOT
TORSDOF 0
ENDMDL
MODEL 4
REMARK VINA RESULT:      -3.2      1.172      2.785
REMARK  Name = .\Carvone.pdb
REMARK  3 active torsions:
REMARK  status: ('A' for Active; 'I' for Inactive)
REMARK    1  A    between atoms: C1_1  and  C2_2
REMARK    2  A    between atoms: C7_8  and  C8_9
REMARK    3  A    between atoms: C7_8  and  C9_10
REMARK                            x       y       z     vdW  Elec       q    Type
REMARK                         _______ _______ _______ _____ _____    ______ ____
ROOT
ATOM      1  C1  UNL     1      15.017  90.237  84.519  0.00  0.00    +0.000 C 
ATOM      2  C2  UNL     1      14.872  91.691  84.895  0.00  0.00    +0.000 C 
ATOM      3  C3  UNL     1      13.689  92.083  85.394  0.00  0.00    +0.000 C 
ATOM      4  C4  UNL     1      13.454  93.473  85.788  0.00  0.00    +0.000 C 
ATOM      5  O1  UNL     1      12.336  93.819  86.254  0.00  0.00    +0.000 OA
ATOM      6  C5  UNL     1      14.521  94.458  85.638  0.00  0.00    +0.000 C 
ATOM      7  C6  UNL     1      15.707  94.100  85.147  0.00  0.00    +0.000 C 
ATOM      8  C7  UNL     1      16.042  92.678  84.711  0.00  0.00    +0.000 C 
ATOM      9  C8  UNL     1      16.437  92.736  83.222  0.00  0.00    +0.000 C 
ATOM     10  C9  UNL     1      17.246  92.212  85.553  0.00  0.00    +0.000 C 
ENDROOT
TORSDOF 0
ENDMDL
MODEL 5
REMARK VINA RESULT:      -3.2      2.119      3.240
REMARK  Name = .\Carvone.pdb
REMARK  3 active torsions:
REMARK  status: ('A' for Active; 'I' for Inactive)
REMARK    1  A    between atoms: C1_1  and  C2_2
REMARK    2  A    between atoms: C7_8  and  C8_9
REMARK    3  A    between atoms: C7_8  and  C9_10
REMARK                            x       y       z     vdW  Elec       q    Type
REMARK                         _______ _______ _______ _____ _____    ______ ____
ROOT
ATOM      1  C1  UNL     1      14.140  94.398  86.378  0.00  0.00    +0.000 C 
ATOM      2  C2  UNL     1      14.807  93.221  85.710  0.00  0.00    +0.000 C 
ATOM      3  C3  UNL     1      16.141  93.122  85.827  0.00  0.00    +0.000 C 
ATOM      4  C4  UNL     1      16.877  92.015  85.213  0.00  0.00    +0.000 C 
ATOM      5  O1  UNL     1      18.128  91.942  85.336  0.00  0.00    +0.000 OA
ATOM      6  C5  UNL     1      16.154  90.996  84.457  0.00  0.00    +0.000 C 
ATOM      7  C6  UNL     1      14.830  91.067  84.324  0.00  0.00    +0.000 C 
ATOM      8  C7  UNL     1      13.982  92.181  84.927  0.00  0.00    +0.000 C 
ATOM      9  C8  UNL     1      13.246  92.876  83.765  0.00  0.00    +0.000 C 
ATOM     10  C9  UNL     1      12.959  91.519  85.871  0.00  0.00    +0.000 C 
ENDROOT
TORSDOF 0
ENDMDL
MODEL 6
REMARK VINA RESULT:      -3.1      2.134      3.724
REMARK  Name = .\Carvone.pdb
REMARK  3 active torsions:
REMARK  status: ('A' for Active; 'I' for Inactive)
REMARK    1  A    between atoms: C1_1  and  C2_2
REMARK    2  A    between atoms: C7_8  and  C8_9
REMARK    3  A    between atoms: C7_8  and  C9_10
REMARK                            x       y       z     vdW  Elec       q    Type
REMARK                         _______ _______ _______ _____ _____    ______ ____
ROOT
ATOM      1  C1  UNL     1      13.716  90.330  84.728  0.00  0.00    +0.000 C 
ATOM      2  C2  UNL     1      14.693  91.467  84.901  0.00  0.00    +0.000 C 
ATOM      3  C3  UNL     1      15.987  91.148  85.063  0.00  0.00    +0.000 C 
ATOM      4  C4  UNL     1      17.008  92.182  85.238  0.00  0.00    +0.000 C 
ATOM      5  O1  UNL     1      18.216  91.858  85.388  0.00  0.00    +0.000 OA
ATOM      6  C5  UNL     1      16.620  93.589  85.239  0.00  0.00    +0.000 C 
ATOM      7  C6  UNL     1      15.344  93.938  85.080  0.00  0.00    +0.000 C 
ATOM      8  C7  UNL     1      14.214  92.932  84.891  0.00  0.00    +0.000 C 
ATOM      9  C8  UNL     1      13.208  93.153  86.038  0.00  0.00    +0.000 C 
ATOM     10  C9  UNL     1      13.542  93.246  83.540  0.00  0.00    +0.000 C 
ENDROOT
TORSDOF 0
ENDMDL
MODEL 7
REMARK VINA RESULT:      -3.1      1.598      2.052
REMARK  Name = .\Carvone.pdb
REMARK  3 active torsions:
REMARK  status: ('A' for Active; 'I' for Inactive)
REMARK    1  A    between atoms: C1_1  and  C2_2
REMARK    2  A    between atoms: C7_8  and  C8_9
REMARK    3  A    between atoms: C7_8  and  C9_10
REMARK                            x       y       z     vdW  Elec       q    Type
REMARK                         _______ _______ _______ _____ _____    ______ ____
ROOT
ATOM      1  C1  UNL     1      17.023  93.740  86.175  0.00  0.00    +0.000 C 
ATOM      2  C2  UNL     1      15.617  93.411  85.735  0.00  0.00    +0.000 C 
ATOM      3  C3  UNL     1      14.610  94.013  86.386  0.00  0.00    +0.000 C 
ATOM      4  C4  UNL     1      13.214  93.757  86.031  0.00  0.00    +0.000 C 
ATOM      5  O1  UNL     1      12.285  94.334  86.656  0.00  0.00    +0.000 OA
ATOM      6  C5  UNL     1      12.902  92.829  84.948  0.00  0.00    +0.000 C 
ATOM      7  C6  UNL     1      13.879  92.215  84.281  0.00  0.00    +0.000 C 
ATOM      8  C7  UNL     1      15.360  92.420  84.582  0.00  0.00    +0.000 C 
ATOM      9  C8  UNL     1      15.949  91.043  84.945  0.00  0.00    +0.000 C 
ATOM     10  C9  UNL     1      16.020  92.947  83.293  0.00  0.00    +0.000 C 
ENDROOT
TORSDOF 0
ENDMDL
MODEL 8
REMARK VINA RESULT:      -2.9      1.010      1.083
REMARK  Name = .\Carvone.pdb
REMARK  3 active torsions:
REMARK  status: ('A' for Active; 'I' for Inactive)
REMARK    1  A    between atoms: C1_1  and  C2_2
REMARK    2  A    between atoms: C7_8  and  C8_9
REMARK    3  A    between atoms: C7_8  and  C9_10
REMARK                            x       y       z     vdW  Elec       q    Type
REMARK                         _______ _______ _______ _____ _____    ______ ____
ROOT
ATOM      1  C1  UNL     1      16.422  95.025  86.425  0.00  0.00    +0.000 C 
ATOM      2  C2  UNL     1      15.884  93.783  85.759  0.00  0.00    +0.000 C 
ATOM      3  C3  UNL     1      14.599  93.469  85.987  0.00  0.00    +0.000 C 
ATOM      4  C4  UNL     1      13.988  92.283  85.384  0.00  0.00    +0.000 C 
ATOM      5  O1  UNL     1      12.780  92.008  85.612  0.00  0.00    +0.000 OA
ATOM      6  C5  UNL     1      14.785  91.420  84.518  0.00  0.00    +0.000 C 
ATOM      7  C6  UNL     1      16.063  91.705  84.271  0.00  0.00    +0.000 C 
ATOM      8  C7  UNL     1      16.782  92.916  84.854  0.00  0.00    +0.000 C 
ATOM      9  C8  UNL     1      17.979  92.389  85.670  0.00  0.00    +0.000 C 
ATOM     10  C9  UNL     1      17.290  93.761  83.670  0.00  0.00    +0.000 C 
ENDROOT
TORSDOF 0
ENDMDL
MODEL 9
REMARK VINA RESULT:      -2.9      2.111      3.169
REMARK  Name = .\Carvone.pdb
REMARK  3 active torsions:
REMARK  status: ('A' for Active; 'I' for Inactive)
REMARK    1  A    between atoms: C1_1  and  C2_2
REMARK    2  A    between atoms: C7_8  and  C8_9
REMARK    3  A    between atoms: C7_8  and  C9_10
REMARK                            x       y       z     vdW  Elec       q    Type
REMARK                         _______ _______ _______ _____ _____    ______ ____
ROOT
ATOM      1  C1  UNL     1      13.805  93.177  84.331  0.00  0.00    +0.000 C 
ATOM      2  C2  UNL     1      15.176  93.148  84.961  0.00  0.00    +0.000 C 
ATOM      3  C3  UNL     1      15.362  93.890  86.064  0.00  0.00    +0.000 C 
ATOM      4  C4  UNL     1      16.657  93.926  86.746  0.00  0.00    +0.000 C 
ATOM      5  O1  UNL     1      16.809  94.630  87.780  0.00  0.00    +0.000 OA
ATOM      6  C5  UNL     1      17.773  93.143  86.223  0.00  0.00    +0.000 C 
ATOM      7  C6  UNL     1      17.619  92.396  85.130  0.00  0.00    +0.000 C 
ATOM      8  C7  UNL     1      16.310  92.297  84.355  0.00  0.00    +0.000 C 
ATOM      9  C8  UNL     1      16.593  92.768  82.915  0.00  0.00    +0.000 C 
ATOM     10  C9  UNL     1      15.893  90.814  84.347  0.00  0.00    +0.000 C 
ENDROOT
TORSDOF 0
ENDMDL
