MODEL 1
REMARK VINA RESULT:       9.3      0.000      0.000
REMARK  Name = .\Carvacrol.pdb
REMARK  5 active torsions:
REMARK  status: ('A' for Active; 'I' for Inactive)
REMARK    1  A    between atoms: C1_1  and  C2_2
REMARK    2  A    between atoms: C2_2  and  C3_3
REMARK    3  A    between atoms: C2_2  and  C4_4
REMARK    4  A    between atoms: C6_6  and  O1_11
REMARK    5  A    between atoms: C7_7  and  C10_10
REMARK                            x       y       z     vdW  Elec       q    Type
REMARK                         _______ _______ _______ _____ _____    ______ ____
ROOT
ATOM      1  C4  UNL     1       0.077  54.754  29.135  0.00  0.00    +0.000 A 
ATOM      2  C5  UNL     1       1.079  54.561  28.169  0.00  0.00    +0.000 A 
ATOM      3  C6  UNL     1       0.834  53.779  27.031  0.00  0.00    +0.000 A 
ATOM      4  C7  UNL     1      -0.424  53.180  26.847  0.00  0.00    +0.000 A 
ATOM      5  C8  UNL     1      -1.426  53.372  27.811  0.00  0.00    +0.000 A 
ATOM      6  C9  UNL     1      -1.179  54.152  28.943  0.00  0.00    +0.000 A 
ATOM      7  C10 UNL     1      -0.693  52.341  25.630  0.00  0.00    +0.000 C 
ENDROOT
BRANCH   1   9
ATOM      8  C1  UNL     1       1.830  56.030  30.412  0.00  0.00    +0.000 C 
ATOM      9  C2  UNL     1       0.358  55.603  30.361  0.00  0.00    +0.000 C 
ATOM     10  C3  UNL     1      -0.572  56.821  30.417  0.00  0.00    +0.000 C 
ENDBRANCH   1   9
BRANCH   3  11
ATOM     11  O1  UNL     1       1.839  53.595  26.081  0.00  0.00    +0.000 OA
ATOM     12  H14 UNL     1       1.886  54.159  25.240  0.00  0.00    +0.000 HD
ENDBRANCH   3  11
TORSDOF 2
ENDMDL
MODEL 2
REMARK VINA RESULT:      11.2      1.686      4.284
REMARK  Name = .\Carvacrol.pdb
REMARK  5 active torsions:
REMARK  status: ('A' for Active; 'I' for Inactive)
REMARK    1  A    between atoms: C1_1  and  C2_2
REMARK    2  A    between atoms: C2_2  and  C3_3
REMARK    3  A    between atoms: C2_2  and  C4_4
REMARK    4  A    between atoms: C6_6  and  O1_11
REMARK    5  A    between atoms: C7_7  and  C10_10
REMARK                            x       y       z     vdW  Elec       q    Type
REMARK                         _______ _______ _______ _____ _____    ______ ____
ROOT
ATOM      1  C4  UNL     1      -1.473  54.224  26.667  0.00  0.00    +0.000 A 
ATOM      2  C5  UNL     1      -0.099  54.497  26.770  0.00  0.00    +0.000 A 
ATOM      3  C6  UNL     1       0.465  54.881  27.996  0.00  0.00    +0.000 A 
ATOM      4  C7  UNL     1      -0.348  54.995  29.137  0.00  0.00    +0.000 A 
ATOM      5  C8  UNL     1      -1.721  54.723  29.036  0.00  0.00    +0.000 A 
ATOM      6  C9  UNL     1      -2.279  54.340  27.813  0.00  0.00    +0.000 A 
ATOM      7  C10 UNL     1       0.248  55.406  30.453  0.00  0.00    +0.000 C 
ENDROOT
BRANCH   1   9
ATOM      8  C1  UNL     1      -2.036  52.286  25.163  0.00  0.00    +0.000 C 
ATOM      9  C2  UNL     1      -2.067  53.810  25.333  0.00  0.00    +0.000 C 
ATOM     10  C3  UNL     1      -3.490  54.355  25.167  0.00  0.00    +0.000 C 
ENDBRANCH   1   9
BRANCH   3  11
ATOM     11  O1  UNL     1       1.831  55.150  28.083  0.00  0.00    +0.000 OA
ATOM     12  H14 UNL     1       2.294  55.263  28.977  0.00  0.00    +0.000 HD
ENDBRANCH   3  11
TORSDOF 2
ENDMDL
MODEL 3
REMARK VINA RESULT:      11.3      1.587      2.380
REMARK  Name = .\Carvacrol.pdb
REMARK  5 active torsions:
REMARK  status: ('A' for Active; 'I' for Inactive)
REMARK    1  A    between atoms: C1_1  and  C2_2
REMARK    2  A    between atoms: C2_2  and  C3_3
REMARK    3  A    between atoms: C2_2  and  C4_4
REMARK    4  A    between atoms: C6_6  and  O1_11
REMARK    5  A    between atoms: C7_7  and  C10_10
REMARK                            x       y       z     vdW  Elec       q    Type
REMARK                         _______ _______ _______ _____ _____    ______ ____
ROOT
ATOM      1  C4  UNL     1       0.385  55.076  28.715  0.00  0.00    +0.000 A 
ATOM      2  C5  UNL     1      -0.992  54.824  28.600  0.00  0.00    +0.000 A 
ATOM      3  C6  UNL     1      -1.485  53.985  27.591  0.00  0.00    +0.000 A 
ATOM      4  C7  UNL     1      -0.598  53.386  26.680  0.00  0.00    +0.000 A 
ATOM      5  C8  UNL     1       0.778  53.636  26.792  0.00  0.00    +0.000 A 
ATOM      6  C9  UNL     1       1.266  54.472  27.799  0.00  0.00    +0.000 A 
ATOM      7  C10 UNL     1      -1.119  52.486  25.596  0.00  0.00    +0.000 C 
ENDROOT
BRANCH   1   9
ATOM      8  C1  UNL     1      -0.255  56.637  30.581  0.00  0.00    +0.000 C 
ATOM      9  C2  UNL     1       0.902  55.987  29.813  0.00  0.00    +0.000 C 
ATOM     10  C3  UNL     1       1.839  55.231  30.763  0.00  0.00    +0.000 C 
ENDBRANCH   1   9
BRANCH   3  11
ATOM     11  O1  UNL     1      -2.856  53.745  27.489  0.00  0.00    +0.000 OA
ATOM     12  H14 UNL     1      -3.249  52.827  27.664  0.00  0.00    +0.000 HD
ENDBRANCH   3  11
TORSDOF 2
ENDMDL
MODEL 4
REMARK VINA RESULT:      11.4      2.024      4.651
REMARK  Name = .\Carvacrol.pdb
REMARK  5 active torsions:
REMARK  status: ('A' for Active; 'I' for Inactive)
REMARK    1  A    between atoms: C1_1  and  C2_2
REMARK    2  A    between atoms: C2_2  and  C3_3
REMARK    3  A    between atoms: C2_2  and  C4_4
REMARK    4  A    between atoms: C6_6  and  O1_11
REMARK    5  A    between atoms: C7_7  and  C10_10
REMARK                            x       y       z     vdW  Elec       q    Type
REMARK                         _______ _______ _______ _____ _____    ______ ____
ROOT
ATOM      1  C4  UNL     1      -0.788  53.965  27.291  0.00  0.00    +0.000 A 
ATOM      2  C5  UNL     1      -1.304  54.596  28.436  0.00  0.00    +0.000 A 
ATOM      3  C6  UNL     1      -0.457  55.283  29.318  0.00  0.00    +0.000 A 
ATOM      4  C7  UNL     1       0.924  55.344  29.061  0.00  0.00    +0.000 A 
ATOM      5  C8  UNL     1       1.441  54.715  27.918  0.00  0.00    +0.000 A 
ATOM      6  C9  UNL     1       0.594  54.032  27.042  0.00  0.00    +0.000 A 
ATOM      7  C10 UNL     1       1.838  56.077  30.001  0.00  0.00    +0.000 C 
ENDROOT
BRANCH   1   9
ATOM      8  C1  UNL     1      -2.576  54.207  25.537  0.00  0.00    +0.000 C 
ATOM      9  C2  UNL     1      -1.719  53.227  26.347  0.00  0.00    +0.000 C 
ATOM     10  C3  UNL     1      -0.938  52.283  25.426  0.00  0.00    +0.000 C 
ENDBRANCH   1   9
BRANCH   3  11
ATOM     11  O1  UNL     1      -0.983  55.904  30.451  0.00  0.00    +0.000 OA
ATOM     12  H14 UNL     1      -0.968  55.453  31.359  0.00  0.00    +0.000 HD
ENDBRANCH   3  11
TORSDOF 2
ENDMDL
