MODEL 1
REMARK VINA RESULT:       5.8      0.000      0.000
REMARK  Name = .\Carvone.pdb
REMARK  3 active torsions:
REMARK  status: ('A' for Active; 'I' for Inactive)
REMARK    1  A    between atoms: C1_1  and  C2_2
REMARK    2  A    between atoms: C7_8  and  C8_9
REMARK    3  A    between atoms: C7_8  and  C9_10
REMARK                            x       y       z     vdW  Elec       q    Type
REMARK                         _______ _______ _______ _____ _____    ______ ____
ROOT
ATOM      1  C1  UNL     1     -12.822  76.972 121.233  0.00  0.00    +0.000 C 
ATOM      2  C2  UNL     1     -12.132  76.407 122.450  0.00  0.00    +0.000 C 
ATOM      3  C3  UNL     1     -12.910  75.898 123.419  0.00  0.00    +0.000 C 
ATOM      4  C4  UNL     1     -12.332  75.327 124.637  0.00  0.00    +0.000 C 
ATOM      5  O1  UNL     1     -13.082  74.855 125.532  0.00  0.00    +0.000 OA
ATOM      6  C5  UNL     1     -10.883  75.307 124.809  0.00  0.00    +0.000 C 
ATOM      7  C6  UNL     1     -10.083  75.804 123.865  0.00  0.00    +0.000 C 
ATOM      8  C7  UNL     1     -10.595  76.417 122.567  0.00  0.00    +0.000 C 
ATOM      9  C8  UNL     1     -10.085  77.871 122.515  0.00  0.00    +0.000 C 
ATOM     10  C9  UNL     1      -9.984  75.608 121.406  0.00  0.00    +0.000 C 
ENDROOT
TORSDOF 0
ENDMDL
MODEL 2
REMARK VINA RESULT:       5.8      0.739      2.515
REMARK  Name = .\Carvone.pdb
REMARK  3 active torsions:
REMARK  status: ('A' for Active; 'I' for Inactive)
REMARK    1  A    between atoms: C1_1  and  C2_2
REMARK    2  A    between atoms: C7_8  and  C8_9
REMARK    3  A    between atoms: C7_8  and  C9_10
REMARK                            x       y       z     vdW  Elec       q    Type
REMARK                         _______ _______ _______ _____ _____    ______ ____
ROOT
ATOM      1  C1  UNL     1      -8.671  76.845 123.906  0.00  0.00    +0.000 C 
ATOM      2  C2  UNL     1     -10.106  76.451 123.652  0.00  0.00    +0.000 C 
ATOM      3  C3  UNL     1     -10.796  75.943 124.685  0.00  0.00    +0.000 C 
ATOM      4  C4  UNL     1     -12.193  75.532 124.536  0.00  0.00    +0.000 C 
ATOM      5  O1  UNL     1     -12.821  75.057 125.520  0.00  0.00    +0.000 OA
ATOM      6  C5  UNL     1     -12.855  75.674 123.243  0.00  0.00    +0.000 C 
ATOM      7  C6  UNL     1     -12.197  76.175 122.198  0.00  0.00    +0.000 C 
ATOM      8  C7  UNL     1     -10.743  76.629 122.260  0.00  0.00    +0.000 C 
ATOM      9  C8  UNL     1      -9.959  75.797 121.225  0.00  0.00    +0.000 C 
ATOM     10  C9  UNL     1     -10.710  78.118 121.865  0.00  0.00    +0.000 C 
ENDROOT
TORSDOF 0
ENDMDL
MODEL 3
REMARK VINA RESULT:       6.3      2.245      3.600
REMARK  Name = .\Carvone.pdb
REMARK  3 active torsions:
REMARK  status: ('A' for Active; 'I' for Inactive)
REMARK    1  A    between atoms: C1_1  and  C2_2
REMARK    2  A    between atoms: C7_8  and  C8_9
REMARK    3  A    between atoms: C7_8  and  C9_10
REMARK                            x       y       z     vdW  Elec       q    Type
REMARK                         _______ _______ _______ _____ _____    ______ ____
ROOT
ATOM      1  C1  UNL     1      -9.268  78.158 124.345  0.00  0.00    +0.000 C 
ATOM      2  C2  UNL     1     -10.262  77.537 123.394  0.00  0.00    +0.000 C 
ATOM      3  C3  UNL     1     -10.827  78.344 122.481  0.00  0.00    +0.000 C 
ATOM      4  C4  UNL     1     -11.802  77.834 121.516  0.00  0.00    +0.000 C 
ATOM      5  O1  UNL     1     -12.319  78.609 120.669  0.00  0.00    +0.000 OA
ATOM      6  C5  UNL     1     -12.174  76.422 121.541  0.00  0.00    +0.000 C 
ATOM      7  C6  UNL     1     -11.631  75.596 122.435  0.00  0.00    +0.000 C 
ATOM      8  C7  UNL     1     -10.608  76.038 123.476  0.00  0.00    +0.000 C 
ATOM      9  C8  UNL     1     -11.201  75.721 124.863  0.00  0.00    +0.000 C 
ATOM     10  C9  UNL     1      -9.334  75.201 123.250  0.00  0.00    +0.000 C 
ENDROOT
TORSDOF 0
ENDMDL
MODEL 4
REMARK VINA RESULT:       6.9      2.094      3.426
REMARK  Name = .\Carvone.pdb
REMARK  3 active torsions:
REMARK  status: ('A' for Active; 'I' for Inactive)
REMARK    1  A    between atoms: C1_1  and  C2_2
REMARK    2  A    between atoms: C7_8  and  C8_9
REMARK    3  A    between atoms: C7_8  and  C9_10
REMARK                            x       y       z     vdW  Elec       q    Type
REMARK                         _______ _______ _______ _____ _____    ______ ____
ROOT
ATOM      1  C1  UNL     1     -11.158  75.236 124.460  0.00  0.00    +0.000 C 
ATOM      2  C2  UNL     1     -11.067  76.297 123.391  0.00  0.00    +0.000 C 
ATOM      3  C3  UNL     1     -12.099  76.404 122.540  0.00  0.00    +0.000 C 
ATOM      4  C4  UNL     1     -12.101  77.403 121.470  0.00  0.00    +0.000 C 
ATOM      5  O1  UNL     1     -13.081  77.485 120.683  0.00  0.00    +0.000 OA
ATOM      6  C5  UNL     1     -10.962  78.304 121.319  0.00  0.00    +0.000 C 
ATOM      7  C6  UNL     1      -9.922  78.223 122.149  0.00  0.00    +0.000 C 
ATOM      8  C7  UNL     1      -9.833  77.216 123.289  0.00  0.00    +0.000 C 
ATOM      9  C8  UNL     1      -8.573  76.361 123.048  0.00  0.00    +0.000 C 
ATOM     10  C9  UNL     1      -9.678  78.016 124.597  0.00  0.00    +0.000 C 
ENDROOT
TORSDOF 0
ENDMDL
