MODEL 1
REMARK VINA RESULT:      -5.5      0.000      0.000
REMARK  Name = .\Carvacrol.pdb
REMARK  5 active torsions:
REMARK  status: ('A' for Active; 'I' for Inactive)
REMARK    1  A    between atoms: C1_1  and  C2_2
REMARK    2  A    between atoms: C2_2  and  C3_3
REMARK    3  A    between atoms: C2_2  and  C4_4
REMARK    4  A    between atoms: C6_6  and  O1_11
REMARK    5  A    between atoms: C7_7  and  C10_10
REMARK                            x       y       z     vdW  Elec       q    Type
REMARK                         _______ _______ _______ _____ _____    ______ ____
ROOT
ATOM      1  C4  UNL     1      -0.291  47.936   3.039  0.00  0.00    +0.000 A 
ATOM      2  C5  UNL     1      -0.073  49.012   2.162  0.00  0.00    +0.000 A 
ATOM      3  C6  UNL     1       0.699  48.847   1.003  0.00  0.00    +0.000 A 
ATOM      4  C7  UNL     1       1.265  47.594   0.709  0.00  0.00    +0.000 A 
ATOM      5  C8  UNL     1       1.049  46.517   1.584  0.00  0.00    +0.000 A 
ATOM      6  C9  UNL     1       0.279  46.686   2.737  0.00  0.00    +0.000 A 
ATOM      7  C10 UNL     1       2.093  47.409  -0.530  0.00  0.00    +0.000 C 
ENDROOT
BRANCH   1   9
ATOM      8  C1  UNL     1      -0.282  47.955   5.555  0.00  0.00    +0.000 C 
ATOM      9  C2  UNL     1      -1.129  48.133   4.289  0.00  0.00    +0.000 C 
ATOM     10  C3  UNL     1      -1.826  49.498   4.278  0.00  0.00    +0.000 C 
ENDBRANCH   1   9
BRANCH   3  11
ATOM     11  O1  UNL     1       0.907  49.925   0.143  0.00  0.00    +0.000 OA
ATOM     12  H14 UNL     1       1.239  50.820   0.483  0.00  0.00    +0.000 HD
ENDBRANCH   3  11
TORSDOF 2
ENDMDL
MODEL 2
REMARK VINA RESULT:      -5.1      2.278      4.804
REMARK  Name = .\Carvacrol.pdb
REMARK  5 active torsions:
REMARK  status: ('A' for Active; 'I' for Inactive)
REMARK    1  A    between atoms: C1_1  and  C2_2
REMARK    2  A    between atoms: C2_2  and  C3_3
REMARK    3  A    between atoms: C2_2  and  C4_4
REMARK    4  A    between atoms: C6_6  and  O1_11
REMARK    5  A    between atoms: C7_7  and  C10_10
REMARK                            x       y       z     vdW  Elec       q    Type
REMARK                         _______ _______ _______ _____ _____    ______ ____
ROOT
ATOM      1  C4  UNL     1      -0.061  47.751   2.703  0.00  0.00    +0.000 A 
ATOM      2  C5  UNL     1       0.634  46.942   3.619  0.00  0.00    +0.000 A 
ATOM      3  C6  UNL     1       0.491  47.140   5.001  0.00  0.00    +0.000 A 
ATOM      4  C7  UNL     1      -0.353  48.156   5.481  0.00  0.00    +0.000 A 
ATOM      5  C8  UNL     1      -1.048  48.964   4.569  0.00  0.00    +0.000 A 
ATOM      6  C9  UNL     1      -0.904  48.764   3.193  0.00  0.00    +0.000 A 
ATOM      7  C10 UNL     1      -0.510  48.373   6.959  0.00  0.00    +0.000 C 
ENDROOT
BRANCH   1   9
ATOM      8  C1  UNL     1       0.957  48.627   0.576  0.00  0.00    +0.000 C 
ATOM      9  C2  UNL     1       0.104  47.523   1.212  0.00  0.00    +0.000 C 
ATOM     10  C3  UNL     1       0.693  46.136   0.926  0.00  0.00    +0.000 C 
ENDBRANCH   1   9
BRANCH   3  11
ATOM     11  O1  UNL     1       1.188  46.330   5.897  0.00  0.00    +0.000 OA
ATOM     12  H14 UNL     1       0.893  45.381   6.097  0.00  0.00    +0.000 HD
ENDBRANCH   3  11
TORSDOF 2
ENDMDL
MODEL 3
REMARK VINA RESULT:      -5.1      2.443      4.667
REMARK  Name = .\Carvacrol.pdb
REMARK  5 active torsions:
REMARK  status: ('A' for Active; 'I' for Inactive)
REMARK    1  A    between atoms: C1_1  and  C2_2
REMARK    2  A    between atoms: C2_2  and  C3_3
REMARK    3  A    between atoms: C2_2  and  C4_4
REMARK    4  A    between atoms: C6_6  and  O1_11
REMARK    5  A    between atoms: C7_7  and  C10_10
REMARK                            x       y       z     vdW  Elec       q    Type
REMARK                         _______ _______ _______ _____ _____    ______ ____
ROOT
ATOM      1  C4  UNL     1       0.246  48.255   3.090  0.00  0.00    +0.000 A 
ATOM      2  C5  UNL     1      -0.821  48.423   3.990  0.00  0.00    +0.000 A 
ATOM      3  C6  UNL     1      -0.581  48.739   5.335  0.00  0.00    +0.000 A 
ATOM      4  C7  UNL     1       0.739  48.892   5.795  0.00  0.00    +0.000 A 
ATOM      5  C8  UNL     1       1.805  48.724   4.899  0.00  0.00    +0.000 A 
ATOM      6  C9  UNL     1       1.562  48.409   3.560  0.00  0.00    +0.000 A 
ATOM      7  C10 UNL     1       1.003  49.230   7.235  0.00  0.00    +0.000 C 
ENDROOT
BRANCH   1   9
ATOM      8  C1  UNL     1       0.817  48.773   0.696  0.00  0.00    +0.000 C 
ATOM      9  C2  UNL     1      -0.032  47.912   1.639  0.00  0.00    +0.000 C 
ATOM     10  C3  UNL     1       0.187  46.418   1.371  0.00  0.00    +0.000 C 
ENDBRANCH   1   9
BRANCH   3  11
ATOM     11  O1  UNL     1      -1.650  48.902   6.216  0.00  0.00    +0.000 OA
ATOM     12  H14 UNL     1      -2.605  48.715   5.932  0.00  0.00    +0.000 HD
ENDBRANCH   3  11
TORSDOF 2
ENDMDL
MODEL 4
REMARK VINA RESULT:      -5.0      1.602      4.240
REMARK  Name = .\Carvacrol.pdb
REMARK  5 active torsions:
REMARK  status: ('A' for Active; 'I' for Inactive)
REMARK    1  A    between atoms: C1_1  and  C2_2
REMARK    2  A    between atoms: C2_2  and  C3_3
REMARK    3  A    between atoms: C2_2  and  C4_4
REMARK    4  A    between atoms: C6_6  and  O1_11
REMARK    5  A    between atoms: C7_7  and  C10_10
REMARK                            x       y       z     vdW  Elec       q    Type
REMARK                         _______ _______ _______ _____ _____    ______ ____
ROOT
ATOM      1  C4  UNL     1       0.605  47.115   2.475  0.00  0.00    +0.000 A 
ATOM      2  C5  UNL     1      -0.285  48.199   2.385  0.00  0.00    +0.000 A 
ATOM      3  C6  UNL     1      -0.814  48.790   3.541  0.00  0.00    +0.000 A 
ATOM      4  C7  UNL     1      -0.455  48.298   4.808  0.00  0.00    +0.000 A 
ATOM      5  C8  UNL     1       0.434  47.215   4.901  0.00  0.00    +0.000 A 
ATOM      6  C9  UNL     1       0.959  46.630   3.747  0.00  0.00    +0.000 A 
ATOM      7  C10 UNL     1      -1.018  48.925   6.051  0.00  0.00    +0.000 C 
ENDROOT
BRANCH   1   9
ATOM      8  C1  UNL     1       0.210  45.435   0.645  0.00  0.00    +0.000 C 
ATOM      9  C2  UNL     1       1.169  46.488   1.214  0.00  0.00    +0.000 C 
ATOM     10  C3  UNL     1       1.501  47.556   0.165  0.00  0.00    +0.000 C 
ENDBRANCH   1   9
BRANCH   3  11
ATOM     11  O1  UNL     1      -1.697  49.864   3.435  0.00  0.00    +0.000 OA
ATOM     12  H14 UNL     1      -2.410  50.038   4.135  0.00  0.00    +0.000 HD
ENDBRANCH   3  11
TORSDOF 2
ENDMDL
MODEL 5
REMARK VINA RESULT:      -5.0      1.924      3.115
REMARK  Name = .\Carvacrol.pdb
REMARK  5 active torsions:
REMARK  status: ('A' for Active; 'I' for Inactive)
REMARK    1  A    between atoms: C1_1  and  C2_2
REMARK    2  A    between atoms: C2_2  and  C3_3
REMARK    3  A    between atoms: C2_2  and  C4_4
REMARK    4  A    between atoms: C6_6  and  O1_11
REMARK    5  A    between atoms: C7_7  and  C10_10
REMARK                            x       y       z     vdW  Elec       q    Type
REMARK                         _______ _______ _______ _____ _____    ______ ____
ROOT
ATOM      1  C4  UNL     1      -0.090  47.637   5.274  0.00  0.00    +0.000 A 
ATOM      2  C5  UNL     1       0.791  46.827   4.537  0.00  0.00    +0.000 A 
ATOM      3  C6  UNL     1       0.854  46.924   3.139  0.00  0.00    +0.000 A 
ATOM      4  C7  UNL     1       0.029  47.838   2.461  0.00  0.00    +0.000 A 
ATOM      5  C8  UNL     1      -0.852  48.648   3.195  0.00  0.00    +0.000 A 
ATOM      6  C9  UNL     1      -0.911  48.549   4.587  0.00  0.00    +0.000 A 
ATOM      7  C10 UNL     1       0.090  47.948   0.964  0.00  0.00    +0.000 C 
ENDROOT
BRANCH   1   9
ATOM      8  C1  UNL     1       0.266  46.116   7.246  0.00  0.00    +0.000 C 
ATOM      9  C2  UNL     1      -0.145  47.519   6.786  0.00  0.00    +0.000 C 
ATOM     10  C3  UNL     1       0.718  48.595   7.456  0.00  0.00    +0.000 C 
ENDBRANCH   1   9
BRANCH   3  11
ATOM     11  O1  UNL     1       1.733  46.113   2.422  0.00  0.00    +0.000 OA
ATOM     12  H14 UNL     1       1.441  45.625   1.582  0.00  0.00    +0.000 HD
ENDBRANCH   3  11
TORSDOF 2
ENDMDL
MODEL 6
REMARK VINA RESULT:      -4.8      1.649      1.932
REMARK  Name = .\Carvacrol.pdb
REMARK  5 active torsions:
REMARK  status: ('A' for Active; 'I' for Inactive)
REMARK    1  A    between atoms: C1_1  and  C2_2
REMARK    2  A    between atoms: C2_2  and  C3_3
REMARK    3  A    between atoms: C2_2  and  C4_4
REMARK    4  A    between atoms: C6_6  and  O1_11
REMARK    5  A    between atoms: C7_7  and  C10_10
REMARK                            x       y       z     vdW  Elec       q    Type
REMARK                         _______ _______ _______ _____ _____    ______ ____
ROOT
ATOM      1  C4  UNL     1       0.204  48.086   3.479  0.00  0.00    +0.000 A 
ATOM      2  C5  UNL     1       1.545  47.670   3.409  0.00  0.00    +0.000 A 
ATOM      3  C6  UNL     1       2.157  47.433   2.169  0.00  0.00    +0.000 A 
ATOM      4  C7  UNL     1       1.429  47.611   0.980  0.00  0.00    +0.000 A 
ATOM      5  C8  UNL     1       0.090  48.027   1.048  0.00  0.00    +0.000 A 
ATOM      6  C9  UNL     1      -0.517  48.262   2.284  0.00  0.00    +0.000 A 
ATOM      7  C10 UNL     1       2.078  47.359  -0.350  0.00  0.00    +0.000 C 
ENDROOT
BRANCH   1   9
ATOM      8  C1  UNL     1       0.485  49.146   5.743  0.00  0.00    +0.000 C 
ATOM      9  C2  UNL     1      -0.443  48.338   4.828  0.00  0.00    +0.000 C 
ATOM     10  C3  UNL     1      -1.802  49.031   4.669  0.00  0.00    +0.000 C 
ENDBRANCH   1   9
BRANCH   3  11
ATOM     11  O1  UNL     1       3.488  47.019   2.116  0.00  0.00    +0.000 OA
ATOM     12  H14 UNL     1       4.254  47.680   2.186  0.00  0.00    +0.000 HD
ENDBRANCH   3  11
TORSDOF 2
ENDMDL
MODEL 7
REMARK VINA RESULT:      -4.8      3.078      5.117
REMARK  Name = .\Carvacrol.pdb
REMARK  5 active torsions:
REMARK  status: ('A' for Active; 'I' for Inactive)
REMARK    1  A    between atoms: C1_1  and  C2_2
REMARK    2  A    between atoms: C2_2  and  C3_3
REMARK    3  A    between atoms: C2_2  and  C4_4
REMARK    4  A    between atoms: C6_6  and  O1_11
REMARK    5  A    between atoms: C7_7  and  C10_10
REMARK                            x       y       z     vdW  Elec       q    Type
REMARK                         _______ _______ _______ _____ _____    ______ ____
ROOT
ATOM      1  C4  UNL     1      -0.117  47.873   4.840  0.00  0.00    +0.000 A 
ATOM      2  C5  UNL     1      -0.251  48.600   6.035  0.00  0.00    +0.000 A 
ATOM      3  C6  UNL     1       0.454  48.219   7.187  0.00  0.00    +0.000 A 
ATOM      4  C7  UNL     1       1.304  47.100   7.152  0.00  0.00    +0.000 A 
ATOM      5  C8  UNL     1       1.439  46.373   5.960  0.00  0.00    +0.000 A 
ATOM      6  C9  UNL     1       0.736  46.756   4.814  0.00  0.00    +0.000 A 
ATOM      7  C10 UNL     1       2.062  46.687   8.382  0.00  0.00    +0.000 C 
ENDROOT
BRANCH   1   9
ATOM      8  C1  UNL     1      -1.630  49.619   3.842  0.00  0.00    +0.000 C 
ATOM      9  C2  UNL     1      -0.887  48.299   3.603  0.00  0.00    +0.000 C 
ATOM     10  C3  UNL     1       0.037  48.397   2.383  0.00  0.00    +0.000 C 
ENDBRANCH   1   9
BRANCH   3  11
ATOM     11  O1  UNL     1       0.311  48.950   8.367  0.00  0.00    +0.000 OA
ATOM     12  H14 UNL     1       0.918  49.732   8.585  0.00  0.00    +0.000 HD
ENDBRANCH   3  11
TORSDOF 2
ENDMDL
MODEL 8
REMARK VINA RESULT:      -4.6      2.175      4.561
REMARK  Name = .\Carvacrol.pdb
REMARK  5 active torsions:
REMARK  status: ('A' for Active; 'I' for Inactive)
REMARK    1  A    between atoms: C1_1  and  C2_2
REMARK    2  A    between atoms: C2_2  and  C3_3
REMARK    3  A    between atoms: C2_2  and  C4_4
REMARK    4  A    between atoms: C6_6  and  O1_11
REMARK    5  A    between atoms: C7_7  and  C10_10
REMARK                            x       y       z     vdW  Elec       q    Type
REMARK                         _______ _______ _______ _____ _____    ______ ____
ROOT
ATOM      1  C4  UNL     1       1.650  47.647   1.885  0.00  0.00    +0.000 A 
ATOM      2  C5  UNL     1       1.957  48.078   3.187  0.00  0.00    +0.000 A 
ATOM      3  C6  UNL     1       0.963  48.616   4.017  0.00  0.00    +0.000 A 
ATOM      4  C7  UNL     1      -0.358  48.729   3.548  0.00  0.00    +0.000 A 
ATOM      5  C8  UNL     1      -0.667  48.299   2.249  0.00  0.00    +0.000 A 
ATOM      6  C9  UNL     1       0.326  47.763   1.425  0.00  0.00    +0.000 A 
ATOM      7  C10 UNL     1      -1.428  49.304   4.431  0.00  0.00    +0.000 C 
ENDROOT
BRANCH   1   9
ATOM      8  C1  UNL     1       2.644  47.621  -0.426  0.00  0.00    +0.000 C 
ATOM      9  C2  UNL     1       2.738  47.067   1.001  0.00  0.00    +0.000 C 
ATOM     10  C3  UNL     1       4.128  47.316   1.599  0.00  0.00    +0.000 C 
ENDBRANCH   1   9
BRANCH   3  11
ATOM     11  O1  UNL     1       1.284  49.041   5.307  0.00  0.00    +0.000 OA
ATOM     12  H14 UNL     1       1.952  48.540   5.880  0.00  0.00    +0.000 HD
ENDBRANCH   3  11
TORSDOF 2
ENDMDL
MODEL 9
REMARK VINA RESULT:      -4.6      1.640      1.915
REMARK  Name = .\Carvacrol.pdb
REMARK  5 active torsions:
REMARK  status: ('A' for Active; 'I' for Inactive)
REMARK    1  A    between atoms: C1_1  and  C2_2
REMARK    2  A    between atoms: C2_2  and  C3_3
REMARK    3  A    between atoms: C2_2  and  C4_4
REMARK    4  A    between atoms: C6_6  and  O1_11
REMARK    5  A    between atoms: C7_7  and  C10_10
REMARK                            x       y       z     vdW  Elec       q    Type
REMARK                         _______ _______ _______ _____ _____    ______ ____
ROOT
ATOM      1  C4  UNL     1       0.538  48.729   4.099  0.00  0.00    +0.000 A 
ATOM      2  C5  UNL     1      -0.219  48.689   2.916  0.00  0.00    +0.000 A 
ATOM      3  C6  UNL     1       0.357  48.262   1.711  0.00  0.00    +0.000 A 
ATOM      4  C7  UNL     1       1.706  47.868   1.678  0.00  0.00    +0.000 A 
ATOM      5  C8  UNL     1       2.464  47.907   2.858  0.00  0.00    +0.000 A 
ATOM      6  C9  UNL     1       1.887  48.333   4.057  0.00  0.00    +0.000 A 
ATOM      7  C10 UNL     1       2.330  47.409   0.391  0.00  0.00    +0.000 C 
ENDROOT
BRANCH   1   9
ATOM      8  C1  UNL     1      -1.107  48.161   5.916  0.00  0.00    +0.000 C 
ATOM      9  C2  UNL     1      -0.101  49.194   5.394  0.00  0.00    +0.000 C 
ATOM     10  C3  UNL     1       0.962  49.513   6.453  0.00  0.00    +0.000 C 
ENDBRANCH   1   9
BRANCH   3  11
ATOM     11  O1  UNL     1      -0.407  48.229   0.544  0.00  0.00    +0.000 OA
ATOM     12  H14 UNL     1      -0.113  47.701  -0.269  0.00  0.00    +0.000 HD
ENDBRANCH   3  11
TORSDOF 2
ENDMDL
