MODEL 1
REMARK VINA RESULT:      -4.6      0.000      0.000
REMARK  Name = .\Carvone.pdb
REMARK  3 active torsions:
REMARK  status: ('A' for Active; 'I' for Inactive)
REMARK    1  A    between atoms: C1_1  and  C2_2
REMARK    2  A    between atoms: C7_8  and  C8_9
REMARK    3  A    between atoms: C7_8  and  C9_10
REMARK                            x       y       z     vdW  Elec       q    Type
REMARK                         _______ _______ _______ _____ _____    ______ ____
ROOT
ATOM      1  C1  UNL     1      -9.759  55.140 -12.186  0.00  0.00    +0.000 C 
ATOM      2  C2  UNL     1      -9.701  55.573 -10.742  0.00  0.00    +0.000 C 
ATOM      3  C3  UNL     1     -10.700  55.175  -9.939  0.00  0.00    +0.000 C 
ATOM      4  C4  UNL     1     -10.732  55.545  -8.523  0.00  0.00    +0.000 C 
ATOM      5  O1  UNL     1     -11.679  55.159  -7.788  0.00  0.00    +0.000 OA
ATOM      6  C5  UNL     1      -9.659  56.365  -7.966  0.00  0.00    +0.000 C 
ATOM      7  C6  UNL     1      -8.653  56.776  -8.737  0.00  0.00    +0.000 C 
ATOM      8  C7  UNL     1      -8.538  56.439 -10.220  0.00  0.00    +0.000 C 
ATOM      9  C8  UNL     1      -8.502  57.773 -10.991  0.00  0.00    +0.000 C 
ATOM     10  C9  UNL     1      -7.207  55.687 -10.417  0.00  0.00    +0.000 C 
ENDROOT
TORSDOF 0
ENDMDL
MODEL 2
REMARK VINA RESULT:      -4.4      6.919      8.732
REMARK  Name = .\Carvone.pdb
REMARK  3 active torsions:
REMARK  status: ('A' for Active; 'I' for Inactive)
REMARK    1  A    between atoms: C1_1  and  C2_2
REMARK    2  A    between atoms: C7_8  and  C8_9
REMARK    3  A    between atoms: C7_8  and  C9_10
REMARK                            x       y       z     vdW  Elec       q    Type
REMARK                         _______ _______ _______ _____ _____    ______ ____
ROOT
ATOM      1  C1  UNL     1     -11.434  49.235 -10.819  0.00  0.00    +0.000 C 
ATOM      2  C2  UNL     1     -11.247  49.295 -12.315  0.00  0.00    +0.000 C 
ATOM      3  C3  UNL     1     -10.537  50.323 -12.806  0.00  0.00    +0.000 C 
ATOM      4  C4  UNL     1     -10.302  50.466 -14.244  0.00  0.00    +0.000 C 
ATOM      5  O1  UNL     1      -9.633  51.438 -14.682  0.00  0.00    +0.000 OA
ATOM      6  C5  UNL     1     -10.848  49.477 -15.168  0.00  0.00    +0.000 C 
ATOM      7  C6  UNL     1     -11.557  48.444 -14.712  0.00  0.00    +0.000 C 
ATOM      8  C7  UNL     1     -11.852  48.215 -13.234  0.00  0.00    +0.000 C 
ATOM      9  C8  UNL     1     -13.384  48.197 -13.069  0.00  0.00    +0.000 C 
ATOM     10  C9  UNL     1     -11.272  46.837 -12.860  0.00  0.00    +0.000 C 
ENDROOT
TORSDOF 0
ENDMDL
MODEL 3
REMARK VINA RESULT:      -4.4      6.479      8.085
REMARK  Name = .\Carvone.pdb
REMARK  3 active torsions:
REMARK  status: ('A' for Active; 'I' for Inactive)
REMARK    1  A    between atoms: C1_1  and  C2_2
REMARK    2  A    between atoms: C7_8  and  C8_9
REMARK    3  A    between atoms: C7_8  and  C9_10
REMARK                            x       y       z     vdW  Elec       q    Type
REMARK                         _______ _______ _______ _____ _____    ______ ____
ROOT
ATOM      1  C1  UNL     1     -11.693  49.120 -15.493  0.00  0.00    +0.000 C 
ATOM      2  C2  UNL     1     -11.515  49.395 -14.019  0.00  0.00    +0.000 C 
ATOM      3  C3  UNL     1     -10.890  50.532 -13.677  0.00  0.00    +0.000 C 
ATOM      4  C4  UNL     1     -10.671  50.886 -12.273  0.00  0.00    +0.000 C 
ATOM      5  O1  UNL     1     -10.082  51.959 -11.975  0.00  0.00    +0.000 OA
ATOM      6  C5  UNL     1     -11.138  49.990 -11.220  0.00  0.00    +0.000 C 
ATOM      7  C6  UNL     1     -11.763  48.853 -11.528  0.00  0.00    +0.000 C 
ATOM      8  C7  UNL     1     -12.034  48.404 -12.959  0.00  0.00    +0.000 C 
ATOM      9  C8  UNL     1     -11.344  47.038 -13.149  0.00  0.00    +0.000 C 
ATOM     10  C9  UNL     1     -13.559  48.242 -13.108  0.00  0.00    +0.000 C 
ENDROOT
TORSDOF 0
ENDMDL
MODEL 4
REMARK VINA RESULT:      -4.4      5.103      6.562
REMARK  Name = .\Carvone.pdb
REMARK  3 active torsions:
REMARK  status: ('A' for Active; 'I' for Inactive)
REMARK    1  A    between atoms: C1_1  and  C2_2
REMARK    2  A    between atoms: C7_8  and  C8_9
REMARK    3  A    between atoms: C7_8  and  C9_10
REMARK                            x       y       z     vdW  Elec       q    Type
REMARK                         _______ _______ _______ _____ _____    ______ ____
ROOT
ATOM      1  C1  UNL     1      -2.359  53.336 -12.656  0.00  0.00    +0.000 C 
ATOM      2  C2  UNL     1      -3.361  54.367 -12.194  0.00  0.00    +0.000 C 
ATOM      3  C3  UNL     1      -2.903  55.372 -11.431  0.00  0.00    +0.000 C 
ATOM      4  C4  UNL     1      -3.798  56.418 -10.936  0.00  0.00    +0.000 C 
ATOM      5  O1  UNL     1      -3.346  57.352 -10.221  0.00  0.00    +0.000 OA
ATOM      6  C5  UNL     1      -5.218  56.376 -11.273  0.00  0.00    +0.000 C 
ATOM      7  C6  UNL     1      -5.703  55.391 -12.030  0.00  0.00    +0.000 C 
ATOM      8  C7  UNL     1      -4.847  54.260 -12.589  0.00  0.00    +0.000 C 
ATOM      9  C8  UNL     1      -5.429  52.937 -12.053  0.00  0.00    +0.000 C 
ATOM     10  C9  UNL     1      -4.977  54.303 -14.124  0.00  0.00    +0.000 C 
ENDROOT
TORSDOF 0
ENDMDL
MODEL 5
REMARK VINA RESULT:      -4.3      4.787      6.451
REMARK  Name = .\Carvone.pdb
REMARK  3 active torsions:
REMARK  status: ('A' for Active; 'I' for Inactive)
REMARK    1  A    between atoms: C1_1  and  C2_2
REMARK    2  A    between atoms: C7_8  and  C8_9
REMARK    3  A    between atoms: C7_8  and  C9_10
REMARK                            x       y       z     vdW  Elec       q    Type
REMARK                         _______ _______ _______ _____ _____    ______ ____
ROOT
ATOM      1  C1  UNL     1      -3.379  57.094 -10.141  0.00  0.00    +0.000 C 
ATOM      2  C2  UNL     1      -3.984  56.066 -11.065  0.00  0.00    +0.000 C 
ATOM      3  C3  UNL     1      -3.139  55.340 -11.815  0.00  0.00    +0.000 C 
ATOM      4  C4  UNL     1      -3.631  54.319 -12.741  0.00  0.00    +0.000 C 
ATOM      5  O1  UNL     1      -2.820  53.649 -13.434  0.00  0.00    +0.000 OA
ATOM      6  C5  UNL     1      -5.067  54.080 -12.858  0.00  0.00    +0.000 C 
ATOM      7  C6  UNL     1      -5.931  54.784 -12.127  0.00  0.00    +0.000 C 
ATOM      8  C7  UNL     1      -5.510  55.866 -11.139  0.00  0.00    +0.000 C 
ATOM      9  C8  UNL     1      -6.181  57.180 -11.585  0.00  0.00    +0.000 C 
ATOM     10  C9  UNL     1      -6.043  55.452  -9.753  0.00  0.00    +0.000 C 
ENDROOT
TORSDOF 0
ENDMDL
MODEL 6
REMARK VINA RESULT:      -4.2      4.923      6.729
REMARK  Name = .\Carvone.pdb
REMARK  3 active torsions:
REMARK  status: ('A' for Active; 'I' for Inactive)
REMARK    1  A    between atoms: C1_1  and  C2_2
REMARK    2  A    between atoms: C7_8  and  C8_9
REMARK    3  A    between atoms: C7_8  and  C9_10
REMARK                            x       y       z     vdW  Elec       q    Type
REMARK                         _______ _______ _______ _____ _____    ______ ____
ROOT
ATOM      1  C1  UNL     1      -6.390  56.080 -11.431  0.00  0.00    +0.000 C 
ATOM      2  C2  UNL     1      -5.145  55.376 -11.912  0.00  0.00    +0.000 C 
ATOM      3  C3  UNL     1      -5.207  54.761 -13.104  0.00  0.00    +0.000 C 
ATOM      4  C4  UNL     1      -4.050  54.052 -13.654  0.00  0.00    +0.000 C 
ATOM      5  O1  UNL     1      -4.131  53.483 -14.774  0.00  0.00    +0.000 OA
ATOM      6  C5  UNL     1      -2.802  54.008 -12.898  0.00  0.00    +0.000 C 
ATOM      7  C6  UNL     1      -2.709  54.609 -11.712  0.00  0.00    +0.000 C 
ATOM      8  C7  UNL     1      -3.860  55.369 -11.062  0.00  0.00    +0.000 C 
ATOM      9  C8  UNL     1      -4.144  54.697  -9.704  0.00  0.00    +0.000 C 
ATOM     10  C9  UNL     1      -3.383  56.817 -10.837  0.00  0.00    +0.000 C 
ENDROOT
TORSDOF 0
ENDMDL
MODEL 7
REMARK VINA RESULT:      -4.2      4.266      5.992
REMARK  Name = .\Carvone.pdb
REMARK  3 active torsions:
REMARK  status: ('A' for Active; 'I' for Inactive)
REMARK    1  A    between atoms: C1_1  and  C2_2
REMARK    2  A    between atoms: C7_8  and  C8_9
REMARK    3  A    between atoms: C7_8  and  C9_10
REMARK                            x       y       z     vdW  Elec       q    Type
REMARK                         _______ _______ _______ _____ _____    ______ ____
ROOT
ATOM      1  C1  UNL     1      -7.375  55.262 -11.471  0.00  0.00    +0.000 C 
ATOM      2  C2  UNL     1      -5.867  55.281 -11.525  0.00  0.00    +0.000 C 
ATOM      3  C3  UNL     1      -5.245  56.338 -10.979  0.00  0.00    +0.000 C 
ATOM      4  C4  UNL     1      -3.785  56.446 -10.982  0.00  0.00    +0.000 C 
ATOM      5  O1  UNL     1      -3.223  57.446 -10.463  0.00  0.00    +0.000 OA
ATOM      6  C5  UNL     1      -2.983  55.388 -11.590  0.00  0.00    +0.000 C 
ATOM      7  C6  UNL     1      -3.571  54.325 -12.140  0.00  0.00    +0.000 C 
ATOM      8  C7  UNL     1      -5.082  54.129 -12.182  0.00  0.00    +0.000 C 
ATOM      9  C8  UNL     1      -5.487  54.011 -13.665  0.00  0.00    +0.000 C 
ATOM     10  C9  UNL     1      -5.394  52.810 -11.450  0.00  0.00    +0.000 C 
ENDROOT
TORSDOF 0
ENDMDL
MODEL 8
REMARK VINA RESULT:      -4.2      3.985      5.664
REMARK  Name = .\Carvone.pdb
REMARK  3 active torsions:
REMARK  status: ('A' for Active; 'I' for Inactive)
REMARK    1  A    between atoms: C1_1  and  C2_2
REMARK    2  A    between atoms: C7_8  and  C8_9
REMARK    3  A    between atoms: C7_8  and  C9_10
REMARK                            x       y       z     vdW  Elec       q    Type
REMARK                         _______ _______ _______ _____ _____    ______ ____
ROOT
ATOM      1  C1  UNL     1      -3.480  57.523 -10.895  0.00  0.00    +0.000 C 
ATOM      2  C2  UNL     1      -4.305  56.273 -11.081  0.00  0.00    +0.000 C 
ATOM      3  C3  UNL     1      -5.615  56.432 -11.332  0.00  0.00    +0.000 C 
ATOM      4  C4  UNL     1      -6.496  55.279 -11.527  0.00  0.00    +0.000 C 
ATOM      5  O1  UNL     1      -7.721  55.452 -11.762  0.00  0.00    +0.000 OA
ATOM      6  C5  UNL     1      -5.948  53.928 -11.449  0.00  0.00    +0.000 C 
ATOM      7  C6  UNL     1      -4.652  53.738 -11.201  0.00  0.00    +0.000 C 
ATOM      8  C7  UNL     1      -3.661  54.876 -10.985  0.00  0.00    +0.000 C 
ATOM      9  C8  UNL     1      -3.046  54.688  -9.584  0.00  0.00    +0.000 C 
ATOM     10  C9  UNL     1      -2.564  54.740 -12.059  0.00  0.00    +0.000 C 
ENDROOT
TORSDOF 0
ENDMDL
MODEL 9
REMARK VINA RESULT:      -4.0      5.762      6.837
REMARK  Name = .\Carvone.pdb
REMARK  3 active torsions:
REMARK  status: ('A' for Active; 'I' for Inactive)
REMARK    1  A    between atoms: C1_1  and  C2_2
REMARK    2  A    between atoms: C7_8  and  C8_9
REMARK    3  A    between atoms: C7_8  and  C9_10
REMARK                            x       y       z     vdW  Elec       q    Type
REMARK                         _______ _______ _______ _____ _____    ______ ____
ROOT
ATOM      1  C1  UNL     1     -11.998  49.512 -15.336  0.00  0.00    +0.000 C 
ATOM      2  C2  UNL     1     -11.622  49.905 -13.928  0.00  0.00    +0.000 C 
ATOM      3  C3  UNL     1     -11.847  49.006 -12.957  0.00  0.00    +0.000 C 
ATOM      4  C4  UNL     1     -11.515  49.296 -11.561  0.00  0.00    +0.000 C 
ATOM      5  O1  UNL     1     -11.735  48.437 -10.667  0.00  0.00    +0.000 OA
ATOM      6  C5  UNL     1     -10.928  50.586 -11.210  0.00  0.00    +0.000 C 
ATOM      7  C6  UNL     1     -10.692  51.500 -12.152  0.00  0.00    +0.000 C 
ATOM      8  C7  UNL     1     -11.005  51.285 -13.629  0.00  0.00    +0.000 C 
ATOM      9  C8  UNL     1     -11.989  52.393 -14.054  0.00  0.00    +0.000 C 
ATOM     10  C9  UNL     1      -9.682  51.438 -14.404  0.00  0.00    +0.000 C 
ENDROOT
TORSDOF 0
ENDMDL
