MODEL 1
REMARK VINA RESULT:      -6.4      0.000      0.000
REMARK  Name = .\Carvacrol.pdb
REMARK  5 active torsions:
REMARK  status: ('A' for Active; 'I' for Inactive)
REMARK    1  A    between atoms: C1_1  and  C2_2
REMARK    2  A    between atoms: C2_2  and  C3_3
REMARK    3  A    between atoms: C2_2  and  C4_4
REMARK    4  A    between atoms: C6_6  and  O1_11
REMARK    5  A    between atoms: C7_7  and  C10_10
REMARK                            x       y       z     vdW  Elec       q    Type
REMARK                         _______ _______ _______ _____ _____    ______ ____
ROOT
ATOM      1  C4  UNL     1       7.750  74.994  65.891  0.00  0.00    +0.000 A 
ATOM      2  C5  UNL     1       8.502  76.099  65.457  0.00  0.00    +0.000 A 
ATOM      3  C6  UNL     1       8.166  77.399  65.864  0.00  0.00    +0.000 A 
ATOM      4  C7  UNL     1       7.066  77.606  66.714  0.00  0.00    +0.000 A 
ATOM      5  C8  UNL     1       6.313  76.505  67.148  0.00  0.00    +0.000 A 
ATOM      6  C9  UNL     1       6.651  75.211  66.742  0.00  0.00    +0.000 A 
ATOM      7  C10 UNL     1       6.700  78.995  67.153  0.00  0.00    +0.000 C 
ENDROOT
BRANCH   1   9
ATOM      8  C1  UNL     1       7.416  72.532  66.288  0.00  0.00    +0.000 C 
ATOM      9  C2  UNL     1       8.127  73.595  65.442  0.00  0.00    +0.000 C 
ATOM     10  C3  UNL     1       7.838  73.397  63.949  0.00  0.00    +0.000 C 
ENDBRANCH   1   9
BRANCH   3  11
ATOM     11  O1  UNL     1       8.922  78.485  65.424  0.00  0.00    +0.000 OA
ATOM     12  H14 UNL     1       8.598  79.439  65.537  0.00  0.00    +0.000 HD
ENDBRANCH   3  11
TORSDOF 2
ENDMDL
MODEL 2
REMARK VINA RESULT:      -6.1      1.947      4.547
REMARK  Name = .\Carvacrol.pdb
REMARK  5 active torsions:
REMARK  status: ('A' for Active; 'I' for Inactive)
REMARK    1  A    between atoms: C1_1  and  C2_2
REMARK    2  A    between atoms: C2_2  and  C3_3
REMARK    3  A    between atoms: C2_2  and  C4_4
REMARK    4  A    between atoms: C6_6  and  O1_11
REMARK    5  A    between atoms: C7_7  and  C10_10
REMARK                            x       y       z     vdW  Elec       q    Type
REMARK                         _______ _______ _______ _____ _____    ______ ____
ROOT
ATOM      1  C4  UNL     1       7.841  75.195  65.975  0.00  0.00    +0.000 A 
ATOM      2  C5  UNL     1       8.312  75.071  64.657  0.00  0.00    +0.000 A 
ATOM      3  C6  UNL     1       8.320  73.825  64.014  0.00  0.00    +0.000 A 
ATOM      4  C7  UNL     1       7.854  72.683  64.689  0.00  0.00    +0.000 A 
ATOM      5  C8  UNL     1       7.383  72.805  66.005  0.00  0.00    +0.000 A 
ATOM      6  C9  UNL     1       7.376  74.048  66.642  0.00  0.00    +0.000 A 
ATOM      7  C10 UNL     1       7.860  71.345  64.006  0.00  0.00    +0.000 C 
ENDROOT
BRANCH   1   9
ATOM      8  C1  UNL     1       8.304  77.652  65.696  0.00  0.00    +0.000 C 
ATOM      9  C2  UNL     1       7.839  76.551  66.656  0.00  0.00    +0.000 C 
ATOM     10  C3  UNL     1       6.459  76.875  67.241  0.00  0.00    +0.000 C 
ENDBRANCH   1   9
BRANCH   3  11
ATOM     11  O1  UNL     1       8.792  73.717  62.705  0.00  0.00    +0.000 OA
ATOM     12  H14 UNL     1       8.351  74.214  61.939  0.00  0.00    +0.000 HD
ENDBRANCH   3  11
TORSDOF 2
ENDMDL
MODEL 3
REMARK VINA RESULT:      -6.0      1.684      2.758
REMARK  Name = .\Carvacrol.pdb
REMARK  5 active torsions:
REMARK  status: ('A' for Active; 'I' for Inactive)
REMARK    1  A    between atoms: C1_1  and  C2_2
REMARK    2  A    between atoms: C2_2  and  C3_3
REMARK    3  A    between atoms: C2_2  and  C4_4
REMARK    4  A    between atoms: C6_6  and  O1_11
REMARK    5  A    between atoms: C7_7  and  C10_10
REMARK                            x       y       z     vdW  Elec       q    Type
REMARK                         _______ _______ _______ _____ _____    ______ ____
ROOT
ATOM      1  C4  UNL     1       7.576  73.514  65.191  0.00  0.00    +0.000 A 
ATOM      2  C5  UNL     1       6.835  74.148  66.203  0.00  0.00    +0.000 A 
ATOM      3  C6  UNL     1       7.023  75.509  66.482  0.00  0.00    +0.000 A 
ATOM      4  C7  UNL     1       7.961  76.254  65.746  0.00  0.00    +0.000 A 
ATOM      5  C8  UNL     1       8.702  75.623  64.734  0.00  0.00    +0.000 A 
ATOM      6  C9  UNL     1       8.512  74.266  64.459  0.00  0.00    +0.000 A 
ATOM      7  C10 UNL     1       8.168  77.713  66.039  0.00  0.00    +0.000 C 
ENDROOT
BRANCH   1   9
ATOM      8  C1  UNL     1       8.178  71.589  63.687  0.00  0.00    +0.000 C 
ATOM      9  C2  UNL     1       7.360  72.040  64.903  0.00  0.00    +0.000 C 
ATOM     10  C3  UNL     1       7.681  71.182  66.133  0.00  0.00    +0.000 C 
ENDBRANCH   1   9
BRANCH   3  11
ATOM     11  O1  UNL     1       6.281  76.125  67.490  0.00  0.00    +0.000 OA
ATOM     12  H14 UNL     1       6.474  75.955  68.471  0.00  0.00    +0.000 HD
ENDBRANCH   3  11
TORSDOF 2
ENDMDL
MODEL 4
REMARK VINA RESULT:      -5.9      1.958      5.126
REMARK  Name = .\Carvacrol.pdb
REMARK  5 active torsions:
REMARK  status: ('A' for Active; 'I' for Inactive)
REMARK    1  A    between atoms: C1_1  and  C2_2
REMARK    2  A    between atoms: C2_2  and  C3_3
REMARK    3  A    between atoms: C2_2  and  C4_4
REMARK    4  A    between atoms: C6_6  and  O1_11
REMARK    5  A    between atoms: C7_7  and  C10_10
REMARK                            x       y       z     vdW  Elec       q    Type
REMARK                         _______ _______ _______ _____ _____    ______ ____
ROOT
ATOM      1  C4  UNL     1       6.986  78.555  67.385  0.00  0.00    +0.000 A 
ATOM      2  C5  UNL     1       6.319  77.338  67.610  0.00  0.00    +0.000 A 
ATOM      3  C6  UNL     1       6.684  76.181  66.907  0.00  0.00    +0.000 A 
ATOM      4  C7  UNL     1       7.726  76.230  65.965  0.00  0.00    +0.000 A 
ATOM      5  C8  UNL     1       8.393  77.444  65.738  0.00  0.00    +0.000 A 
ATOM      6  C9  UNL     1       8.028  78.595  66.441  0.00  0.00    +0.000 A 
ATOM      7  C10 UNL     1       8.122  74.995  65.208  0.00  0.00    +0.000 C 
ENDROOT
BRANCH   1   9
ATOM      8  C1  UNL     1       7.778  80.727  68.377  0.00  0.00    +0.000 C 
ATOM      9  C2  UNL     1       6.579  79.797  68.154  0.00  0.00    +0.000 C 
ATOM     10  C3  UNL     1       5.433  80.533  67.450  0.00  0.00    +0.000 C 
ENDBRANCH   1   9
BRANCH   3  11
ATOM     11  O1  UNL     1       6.012  74.981  67.141  0.00  0.00    +0.000 OA
ATOM     12  H14 UNL     1       6.099  74.486  68.021  0.00  0.00    +0.000 HD
ENDBRANCH   3  11
TORSDOF 2
ENDMDL
MODEL 5
REMARK VINA RESULT:      -5.9      1.492      2.313
REMARK  Name = .\Carvacrol.pdb
REMARK  5 active torsions:
REMARK  status: ('A' for Active; 'I' for Inactive)
REMARK    1  A    between atoms: C1_1  and  C2_2
REMARK    2  A    between atoms: C2_2  and  C3_3
REMARK    3  A    between atoms: C2_2  and  C4_4
REMARK    4  A    between atoms: C6_6  and  O1_11
REMARK    5  A    between atoms: C7_7  and  C10_10
REMARK                            x       y       z     vdW  Elec       q    Type
REMARK                         _______ _______ _______ _____ _____    ______ ____
ROOT
ATOM      1  C4  UNL     1       7.657  73.431  65.118  0.00  0.00    +0.000 A 
ATOM      2  C5  UNL     1       8.457  74.199  64.255  0.00  0.00    +0.000 A 
ATOM      3  C6  UNL     1       8.689  75.558  64.513  0.00  0.00    +0.000 A 
ATOM      4  C7  UNL     1       8.117  76.166  65.645  0.00  0.00    +0.000 A 
ATOM      5  C8  UNL     1       7.317  75.401  66.508  0.00  0.00    +0.000 A 
ATOM      6  C9  UNL     1       7.089  74.047  66.248  0.00  0.00    +0.000 A 
ATOM      7  C10 UNL     1       8.361  77.621  65.927  0.00  0.00    +0.000 C 
ENDROOT
BRANCH   1   9
ATOM      8  C1  UNL     1       8.266  71.490  63.638  0.00  0.00    +0.000 C 
ATOM      9  C2  UNL     1       7.416  71.962  64.824  0.00  0.00    +0.000 C 
ATOM     10  C3  UNL     1       7.673  71.100  66.066  0.00  0.00    +0.000 C 
ENDBRANCH   1   9
BRANCH   3  11
ATOM     11  O1  UNL     1       9.485  76.308  63.647  0.00  0.00    +0.000 OA
ATOM     12  H14 UNL     1      10.403  75.988  63.358  0.00  0.00    +0.000 HD
ENDBRANCH   3  11
TORSDOF 2
ENDMDL
MODEL 6
REMARK VINA RESULT:      -5.8      1.415      2.031
REMARK  Name = .\Carvacrol.pdb
REMARK  5 active torsions:
REMARK  status: ('A' for Active; 'I' for Inactive)
REMARK    1  A    between atoms: C1_1  and  C2_2
REMARK    2  A    between atoms: C2_2  and  C3_3
REMARK    3  A    between atoms: C2_2  and  C4_4
REMARK    4  A    between atoms: C6_6  and  O1_11
REMARK    5  A    between atoms: C7_7  and  C10_10
REMARK                            x       y       z     vdW  Elec       q    Type
REMARK                         _______ _______ _______ _____ _____    ______ ____
ROOT
ATOM      1  C4  UNL     1       7.928  75.101  65.716  0.00  0.00    +0.000 A 
ATOM      2  C5  UNL     1       6.933  75.286  66.691  0.00  0.00    +0.000 A 
ATOM      3  C6  UNL     1       6.615  76.572  67.154  0.00  0.00    +0.000 A 
ATOM      4  C7  UNL     1       7.295  77.691  66.642  0.00  0.00    +0.000 A 
ATOM      5  C8  UNL     1       8.289  77.507  65.669  0.00  0.00    +0.000 A 
ATOM      6  C9  UNL     1       8.603  76.226  65.210  0.00  0.00    +0.000 A 
ATOM      7  C10 UNL     1       6.960  79.070  67.133  0.00  0.00    +0.000 C 
ENDROOT
BRANCH   1   9
ATOM      8  C1  UNL     1       7.482  72.643  66.015  0.00  0.00    +0.000 C 
ATOM      9  C2  UNL     1       8.260  73.703  65.227  0.00  0.00    +0.000 C 
ATOM     10  C3  UNL     1       8.005  73.569  63.721  0.00  0.00    +0.000 C 
ENDBRANCH   1   9
BRANCH   3  11
ATOM     11  O1  UNL     1       5.625  76.740  68.122  0.00  0.00    +0.000 OA
ATOM     12  H14 UNL     1       4.872  77.408  68.002  0.00  0.00    +0.000 HD
ENDBRANCH   3  11
TORSDOF 2
ENDMDL
MODEL 7
REMARK VINA RESULT:      -5.8      2.445      4.992
REMARK  Name = .\Carvacrol.pdb
REMARK  5 active torsions:
REMARK  status: ('A' for Active; 'I' for Inactive)
REMARK    1  A    between atoms: C1_1  and  C2_2
REMARK    2  A    between atoms: C2_2  and  C3_3
REMARK    3  A    between atoms: C2_2  and  C4_4
REMARK    4  A    between atoms: C6_6  and  O1_11
REMARK    5  A    between atoms: C7_7  and  C10_10
REMARK                            x       y       z     vdW  Elec       q    Type
REMARK                         _______ _______ _______ _____ _____    ______ ____
ROOT
ATOM      1  C4  UNL     1       7.911  75.124  65.796  0.00  0.00    +0.000 A 
ATOM      2  C5  UNL     1       7.483  73.908  66.355  0.00  0.00    +0.000 A 
ATOM      3  C6  UNL     1       7.561  72.715  65.622  0.00  0.00    +0.000 A 
ATOM      4  C7  UNL     1       8.072  72.728  64.312  0.00  0.00    +0.000 A 
ATOM      5  C8  UNL     1       8.500  73.942  63.751  0.00  0.00    +0.000 A 
ATOM      6  C9  UNL     1       8.421  75.127  64.485  0.00  0.00    +0.000 A 
ATOM      7  C10 UNL     1       8.158  71.455  63.520  0.00  0.00    +0.000 C 
ENDROOT
BRANCH   1   9
ATOM      8  C1  UNL     1       8.269  77.614  65.775  0.00  0.00    +0.000 C 
ATOM      9  C2  UNL     1       7.820  76.405  66.604  0.00  0.00    +0.000 C 
ATOM     10  C3  UNL     1       6.405  76.610  67.158  0.00  0.00    +0.000 C 
ENDBRANCH   1   9
BRANCH   3  11
ATOM     11  O1  UNL     1       7.130  71.516  66.190  0.00  0.00    +0.000 OA
ATOM     12  H14 UNL     1       7.617  70.643  66.021  0.00  0.00    +0.000 HD
ENDBRANCH   3  11
TORSDOF 2
ENDMDL
MODEL 8
REMARK VINA RESULT:      -5.6      2.345      3.410
REMARK  Name = .\Carvacrol.pdb
REMARK  5 active torsions:
REMARK  status: ('A' for Active; 'I' for Inactive)
REMARK    1  A    between atoms: C1_1  and  C2_2
REMARK    2  A    between atoms: C2_2  and  C3_3
REMARK    3  A    between atoms: C2_2  and  C4_4
REMARK    4  A    between atoms: C6_6  and  O1_11
REMARK    5  A    between atoms: C7_7  and  C10_10
REMARK                            x       y       z     vdW  Elec       q    Type
REMARK                         _______ _______ _______ _____ _____    ______ ____
ROOT
ATOM      1  C4  UNL     1       9.274  76.360  64.272  0.00  0.00    +0.000 A 
ATOM      2  C5  UNL     1       8.608  75.309  64.924  0.00  0.00    +0.000 A 
ATOM      3  C6  UNL     1       7.756  75.565  66.009  0.00  0.00    +0.000 A 
ATOM      4  C7  UNL     1       7.563  76.884  66.454  0.00  0.00    +0.000 A 
ATOM      5  C8  UNL     1       8.228  77.936  65.804  0.00  0.00    +0.000 A 
ATOM      6  C9  UNL     1       9.075  77.677  64.724  0.00  0.00    +0.000 A 
ATOM      7  C10 UNL     1       6.653  77.166  67.616  0.00  0.00    +0.000 C 
ENDROOT
BRANCH   1   9
ATOM      8  C1  UNL     1       9.630  74.936  62.229  0.00  0.00    +0.000 C 
ATOM      9  C2  UNL     1      10.192  76.066  63.100  0.00  0.00    +0.000 C 
ATOM     10  C3  UNL     1      10.450  77.328  62.268  0.00  0.00    +0.000 C 
ENDBRANCH   1   9
BRANCH   3  11
ATOM     11  O1  UNL     1       7.102  74.511  66.647  0.00  0.00    +0.000 OA
ATOM     12  H14 UNL     1       6.957  73.619  66.187  0.00  0.00    +0.000 HD
ENDBRANCH   3  11
TORSDOF 2
ENDMDL
MODEL 9
REMARK VINA RESULT:      -5.4      1.523      4.257
REMARK  Name = .\Carvacrol.pdb
REMARK  5 active torsions:
REMARK  status: ('A' for Active; 'I' for Inactive)
REMARK    1  A    between atoms: C1_1  and  C2_2
REMARK    2  A    between atoms: C2_2  and  C3_3
REMARK    3  A    between atoms: C2_2  and  C4_4
REMARK    4  A    between atoms: C6_6  and  O1_11
REMARK    5  A    between atoms: C7_7  and  C10_10
REMARK                            x       y       z     vdW  Elec       q    Type
REMARK                         _______ _______ _______ _____ _____    ______ ____
ROOT
ATOM      1  C4  UNL     1       7.460  76.645  66.339  0.00  0.00    +0.000 A 
ATOM      2  C5  UNL     1       8.394  76.440  65.309  0.00  0.00    +0.000 A 
ATOM      3  C6  UNL     1       8.598  75.161  64.771  0.00  0.00    +0.000 A 
ATOM      4  C7  UNL     1       7.865  74.067  65.263  0.00  0.00    +0.000 A 
ATOM      5  C8  UNL     1       6.932  74.269  66.292  0.00  0.00    +0.000 A 
ATOM      6  C9  UNL     1       6.731  75.545  66.825  0.00  0.00    +0.000 A 
ATOM      7  C10 UNL     1       8.078  72.694  64.692  0.00  0.00    +0.000 C 
ENDROOT
BRANCH   1   9
ATOM      8  C1  UNL     1       6.186  78.803  66.119  0.00  0.00    +0.000 C 
ATOM      9  C2  UNL     1       7.252  78.035  66.910  0.00  0.00    +0.000 C 
ATOM     10  C3  UNL     1       6.897  77.975  68.400  0.00  0.00    +0.000 C 
ENDBRANCH   1   9
BRANCH   3  11
ATOM     11  O1  UNL     1       9.529  74.973  63.750  0.00  0.00    +0.000 OA
ATOM     12  H14 UNL     1       9.487  75.505  62.888  0.00  0.00    +0.000 HD
ENDBRANCH   3  11
TORSDOF 2
ENDMDL
