MODEL 1
REMARK VINA RESULT:      -2.9      0.000      0.000
REMARK  Name = .\Carvone.pdb
REMARK  3 active torsions:
REMARK  status: ('A' for Active; 'I' for Inactive)
REMARK    1  A    between atoms: C1_1  and  C2_2
REMARK    2  A    between atoms: C7_8  and  C8_9
REMARK    3  A    between atoms: C7_8  and  C9_10
REMARK                            x       y       z     vdW  Elec       q    Type
REMARK                         _______ _______ _______ _____ _____    ______ ____
ROOT
ATOM      1  C1  UNL     1       7.642  47.508  21.621  0.00  0.00    +0.000 C 
ATOM      2  C2  UNL     1       7.706  46.598  22.824  0.00  0.00    +0.000 C 
ATOM      3  C3  UNL     1       6.997  46.957  23.906  0.00  0.00    +0.000 C 
ATOM      4  C4  UNL     1       6.996  46.140  25.120  0.00  0.00    +0.000 C 
ATOM      5  O1  UNL     1       6.323  46.496  26.123  0.00  0.00    +0.000 OA
ATOM      6  C5  UNL     1       7.780  44.909  25.164  0.00  0.00    +0.000 C 
ATOM      7  C6  UNL     1       8.495  44.525  24.106  0.00  0.00    +0.000 C 
ATOM      8  C7  UNL     1       8.555  45.312  22.801  0.00  0.00    +0.000 C 
ATOM      9  C8  UNL     1      10.033  45.674  22.553  0.00  0.00    +0.000 C 
ATOM     10  C9  UNL     1       8.051  44.382  21.681  0.00  0.00    +0.000 C 
ENDROOT
TORSDOF 0
ENDMDL
MODEL 2
REMARK VINA RESULT:      -2.8      1.108      2.550
REMARK  Name = .\Carvone.pdb
REMARK  3 active torsions:
REMARK  status: ('A' for Active; 'I' for Inactive)
REMARK    1  A    between atoms: C1_1  and  C2_2
REMARK    2  A    between atoms: C7_8  and  C8_9
REMARK    3  A    between atoms: C7_8  and  C9_10
REMARK                            x       y       z     vdW  Elec       q    Type
REMARK                         _______ _______ _______ _____ _____    ______ ____
ROOT
ATOM      1  C1  UNL     1       9.261  43.992  22.354  0.00  0.00    +0.000 C 
ATOM      2  C2  UNL     1       8.441  44.846  23.290  0.00  0.00    +0.000 C 
ATOM      3  C3  UNL     1       8.040  44.287  24.443  0.00  0.00    +0.000 C 
ATOM      4  C4  UNL     1       7.241  45.036  25.414  0.00  0.00    +0.000 C 
ATOM      5  O1  UNL     1       6.877  44.491  26.489  0.00  0.00    +0.000 OA
ATOM      6  C5  UNL     1       6.867  46.419  25.130  0.00  0.00    +0.000 C 
ATOM      7  C6  UNL     1       7.250  47.003  23.994  0.00  0.00    +0.000 C 
ATOM      8  C7  UNL     1       8.082  46.301  22.927  0.00  0.00    +0.000 C 
ATOM      9  C8  UNL     1       7.263  46.319  21.622  0.00  0.00    +0.000 C 
ATOM     10  C9  UNL     1       9.375  47.119  22.743  0.00  0.00    +0.000 C 
ENDROOT
TORSDOF 0
ENDMDL
MODEL 3
REMARK VINA RESULT:      -1.5      2.580      4.677
REMARK  Name = .\Carvone.pdb
REMARK  3 active torsions:
REMARK  status: ('A' for Active; 'I' for Inactive)
REMARK    1  A    between atoms: C1_1  and  C2_2
REMARK    2  A    between atoms: C7_8  and  C8_9
REMARK    3  A    between atoms: C7_8  and  C9_10
REMARK                            x       y       z     vdW  Elec       q    Type
REMARK                         _______ _______ _______ _____ _____    ______ ____
ROOT
ATOM      1  C1  UNL     1       4.158  47.446  27.209  0.00  0.00    +0.000 C 
ATOM      2  C2  UNL     1       5.267  46.621  26.604  0.00  0.00    +0.000 C 
ATOM      3  C3  UNL     1       5.891  47.124  25.527  0.00  0.00    +0.000 C 
ATOM      4  C4  UNL     1       6.979  46.396  24.871  0.00  0.00    +0.000 C 
ATOM      5  O1  UNL     1       7.551  46.888  23.862  0.00  0.00    +0.000 OA
ATOM      6  C5  UNL     1       7.398  45.098  25.391  0.00  0.00    +0.000 C 
ATOM      7  C6  UNL     1       6.798  44.572  26.459  0.00  0.00    +0.000 C 
ATOM      8  C7  UNL     1       5.659  45.257  27.205  0.00  0.00    +0.000 C 
ATOM      9  C8  UNL     1       4.446  44.306  27.160  0.00  0.00    +0.000 C 
ATOM     10  C9  UNL     1       6.117  45.449  28.664  0.00  0.00    +0.000 C 
ENDROOT
TORSDOF 0
ENDMDL
MODEL 4
REMARK VINA RESULT:      -0.8      2.827      5.099
REMARK  Name = .\Carvone.pdb
REMARK  3 active torsions:
REMARK  status: ('A' for Active; 'I' for Inactive)
REMARK    1  A    between atoms: C1_1  and  C2_2
REMARK    2  A    between atoms: C7_8  and  C8_9
REMARK    3  A    between atoms: C7_8  and  C9_10
REMARK                            x       y       z     vdW  Elec       q    Type
REMARK                         _______ _______ _______ _____ _____    ______ ____
ROOT
ATOM      1  C1  UNL     1       4.339  44.030  27.907  0.00  0.00    +0.000 C 
ATOM      2  C2  UNL     1       5.363  44.706  27.029  0.00  0.00    +0.000 C 
ATOM      3  C3  UNL     1       6.084  43.924  26.209  0.00  0.00    +0.000 C 
ATOM      4  C4  UNL     1       7.100  44.488  25.320  0.00  0.00    +0.000 C 
ATOM      5  O1  UNL     1       7.764  43.736  24.559  0.00  0.00    +0.000 OA
ATOM      6  C5  UNL     1       7.341  45.928  25.318  0.00  0.00    +0.000 C 
ATOM      7  C6  UNL     1       6.641  46.731  26.119  0.00  0.00    +0.000 C 
ATOM      8  C7  UNL     1       5.565  46.233  27.077  0.00  0.00    +0.000 C 
ATOM      9  C8  UNL     1       5.989  46.651  28.499  0.00  0.00    +0.000 C 
ATOM     10  C9  UNL     1       4.250  46.939  26.696  0.00  0.00    +0.000 C 
ENDROOT
TORSDOF 0
ENDMDL
MODEL 5
REMARK VINA RESULT:      -0.3      3.562      5.282
REMARK  Name = .\Carvone.pdb
REMARK  3 active torsions:
REMARK  status: ('A' for Active; 'I' for Inactive)
REMARK    1  A    between atoms: C1_1  and  C2_2
REMARK    2  A    between atoms: C7_8  and  C8_9
REMARK    3  A    between atoms: C7_8  and  C9_10
REMARK                            x       y       z     vdW  Elec       q    Type
REMARK                         _______ _______ _______ _____ _____    ______ ____
ROOT
ATOM      1  C1  UNL     1       7.086  44.148  26.089  0.00  0.00    +0.000 C 
ATOM      2  C2  UNL     1       5.796  44.759  26.579  0.00  0.00    +0.000 C 
ATOM      3  C3  UNL     1       4.737  43.943  26.703  0.00  0.00    +0.000 C 
ATOM      4  C4  UNL     1       3.443  44.443  27.170  0.00  0.00    +0.000 C 
ATOM      5  O1  UNL     1       2.463  43.660  27.279  0.00  0.00    +0.000 OA
ATOM      6  C5  UNL     1       3.293  45.855  27.510  0.00  0.00    +0.000 C 
ATOM      7  C6  UNL     1       4.326  46.691  27.398  0.00  0.00    +0.000 C 
ATOM      8  C7  UNL     1       5.708  46.259  26.920  0.00  0.00    +0.000 C 
ATOM      9  C8  UNL     1       6.040  47.093  25.667  0.00  0.00    +0.000 C 
ATOM     10  C9  UNL     1       6.706  46.591  28.047  0.00  0.00    +0.000 C 
ENDROOT
TORSDOF 0
ENDMDL
MODEL 6
REMARK VINA RESULT:       0.0      1.757      2.914
REMARK  Name = .\Carvone.pdb
REMARK  3 active torsions:
REMARK  status: ('A' for Active; 'I' for Inactive)
REMARK    1  A    between atoms: C1_1  and  C2_2
REMARK    2  A    between atoms: C7_8  and  C8_9
REMARK    3  A    between atoms: C7_8  and  C9_10
REMARK                            x       y       z     vdW  Elec       q    Type
REMARK                         _______ _______ _______ _____ _____    ______ ____
ROOT
ATOM      1  C1  UNL     1       9.010  43.603  21.872  0.00  0.00    +0.000 C 
ATOM      2  C2  UNL     1       8.395  44.788  22.577  0.00  0.00    +0.000 C 
ATOM      3  C3  UNL     1       7.889  45.766  21.809  0.00  0.00    +0.000 C 
ATOM      4  C4  UNL     1       7.273  46.955  22.402  0.00  0.00    +0.000 C 
ATOM      5  O1  UNL     1       6.805  47.860  21.662  0.00  0.00    +0.000 OA
ATOM      6  C5  UNL     1       7.204  47.086  23.854  0.00  0.00    +0.000 C 
ATOM      7  C6  UNL     1       7.697  46.131  24.643  0.00  0.00    +0.000 C 
ATOM      8  C7  UNL     1       8.355  44.862  24.116  0.00  0.00    +0.000 C 
ATOM      9  C8  UNL     1       9.793  44.827  24.671  0.00  0.00    +0.000 C 
ATOM     10  C9  UNL     1       7.554  43.667  24.668  0.00  0.00    +0.000 C 
ENDROOT
TORSDOF 0
ENDMDL
