MODEL 1
REMARK VINA RESULT:      -4.9      0.000      0.000
REMARK  Name = .\Carvone.pdb
REMARK  3 active torsions:
REMARK  status: ('A' for Active; 'I' for Inactive)
REMARK    1  A    between atoms: C1_1  and  C2_2
REMARK    2  A    between atoms: C7_8  and  C8_9
REMARK    3  A    between atoms: C7_8  and  C9_10
REMARK                            x       y       z     vdW  Elec       q    Type
REMARK                         _______ _______ _______ _____ _____    ______ ____
ROOT
ATOM      1  C1  UNL     1      -8.987  82.117 100.209  0.00  0.00    +0.000 C 
ATOM      2  C2  UNL     1     -10.091  82.448  99.235  0.00  0.00    +0.000 C 
ATOM      3  C3  UNL     1      -9.790  82.412  97.927  0.00  0.00    +0.000 C 
ATOM      4  C4  UNL     1     -10.795  82.717  96.907  0.00  0.00    +0.000 C 
ATOM      5  O1  UNL     1     -10.489  82.676  95.686  0.00  0.00    +0.000 OA
ATOM      6  C5  UNL     1     -12.152  83.068  97.312  0.00  0.00    +0.000 C 
ATOM      7  C6  UNL     1     -12.483  83.112  98.602  0.00  0.00    +0.000 C 
ATOM      8  C7  UNL     1     -11.504  82.811  99.732  0.00  0.00    +0.000 C 
ATOM      9  C8  UNL     1     -11.430  84.067 100.622  0.00  0.00    +0.000 C 
ATOM     10  C9  UNL     1     -12.085  81.634 100.539  0.00  0.00    +0.000 C 
ENDROOT
TORSDOF 0
ENDMDL
MODEL 2
REMARK VINA RESULT:      -4.9      2.064      3.613
REMARK  Name = .\Carvone.pdb
REMARK  3 active torsions:
REMARK  status: ('A' for Active; 'I' for Inactive)
REMARK    1  A    between atoms: C1_1  and  C2_2
REMARK    2  A    between atoms: C7_8  and  C8_9
REMARK    3  A    between atoms: C7_8  and  C9_10
REMARK                            x       y       z     vdW  Elec       q    Type
REMARK                         _______ _______ _______ _____ _____    ______ ____
ROOT
ATOM      1  C1  UNL     1     -13.016  84.323  99.165  0.00  0.00    +0.000 C 
ATOM      2  C2  UNL     1     -11.772  83.476  99.044  0.00  0.00    +0.000 C 
ATOM      3  C3  UNL     1     -11.240  82.997 100.179  0.00  0.00    +0.000 C 
ATOM      4  C4  UNL     1     -10.035  82.166 100.163  0.00  0.00    +0.000 C 
ATOM      5  O1  UNL     1      -9.554  81.728 101.241  0.00  0.00    +0.000 OA
ATOM      6  C5  UNL     1      -9.393  81.849  98.891  0.00  0.00    +0.000 C 
ATOM      7  C6  UNL     1      -9.898  82.309  97.746  0.00  0.00    +0.000 C 
ATOM      8  C7  UNL     1     -11.147  83.179  97.667  0.00  0.00    +0.000 C 
ATOM      9  C8  UNL     1     -10.740  84.503  96.989  0.00  0.00    +0.000 C 
ATOM     10  C9  UNL     1     -12.169  82.435  96.786  0.00  0.00    +0.000 C 
ENDROOT
TORSDOF 0
ENDMDL
MODEL 3
REMARK VINA RESULT:      -4.7      1.939      3.302
REMARK  Name = .\Carvone.pdb
REMARK  3 active torsions:
REMARK  status: ('A' for Active; 'I' for Inactive)
REMARK    1  A    between atoms: C1_1  and  C2_2
REMARK    2  A    between atoms: C7_8  and  C8_9
REMARK    3  A    between atoms: C7_8  and  C9_10
REMARK                            x       y       z     vdW  Elec       q    Type
REMARK                         _______ _______ _______ _____ _____    ______ ____
ROOT
ATOM      1  C1  UNL     1     -10.496  82.917  96.273  0.00  0.00    +0.000 C 
ATOM      2  C2  UNL     1     -10.945  82.744  97.703  0.00  0.00    +0.000 C 
ATOM      3  C3  UNL     1     -10.070  82.196  98.562  0.00  0.00    +0.000 C 
ATOM      4  C4  UNL     1     -10.415  81.988  99.969  0.00  0.00    +0.000 C 
ATOM      5  O1  UNL     1      -9.578  81.473 100.756  0.00  0.00    +0.000 OA
ATOM      6  C5  UNL     1     -11.735  82.380 100.456  0.00  0.00    +0.000 C 
ATOM      7  C6  UNL     1     -12.625  82.927  99.629  0.00  0.00    +0.000 C 
ATOM      8  C7  UNL     1     -12.354  83.181  98.150  0.00  0.00    +0.000 C 
ATOM      9  C8  UNL     1     -13.414  82.398  97.349  0.00  0.00    +0.000 C 
ATOM     10  C9  UNL     1     -12.527  84.692  97.906  0.00  0.00    +0.000 C 
ENDROOT
TORSDOF 0
ENDMDL
MODEL 4
REMARK VINA RESULT:      -4.5      1.784      2.478
REMARK  Name = .\Carvone.pdb
REMARK  3 active torsions:
REMARK  status: ('A' for Active; 'I' for Inactive)
REMARK    1  A    between atoms: C1_1  and  C2_2
REMARK    2  A    between atoms: C7_8  and  C8_9
REMARK    3  A    between atoms: C7_8  and  C9_10
REMARK                            x       y       z     vdW  Elec       q    Type
REMARK                         _______ _______ _______ _____ _____    ______ ____
ROOT
ATOM      1  C1  UNL     1     -11.352  82.449 102.247  0.00  0.00    +0.000 C 
ATOM      2  C2  UNL     1     -10.864  82.416 100.819  0.00  0.00    +0.000 C 
ATOM      3  C3  UNL     1      -9.771  81.681 100.559  0.00  0.00    +0.000 C 
ATOM      4  C4  UNL     1      -9.223  81.587  99.204  0.00  0.00    +0.000 C 
ATOM      5  O1  UNL     1      -8.197  80.892  98.983  0.00  0.00    +0.000 OA
ATOM      6  C5  UNL     1      -9.872  82.305  98.110  0.00  0.00    +0.000 C 
ATOM      7  C6  UNL     1     -10.959  83.042  98.337  0.00  0.00    +0.000 C 
ATOM      8  C7  UNL     1     -11.598  83.198  99.712  0.00  0.00    +0.000 C 
ATOM      9  C8  UNL     1     -11.592  84.701 100.052  0.00  0.00    +0.000 C 
ATOM     10  C9  UNL     1     -13.050  82.694  99.602  0.00  0.00    +0.000 C 
ENDROOT
TORSDOF 0
ENDMDL
MODEL 5
REMARK VINA RESULT:      -4.5      0.760      2.688
REMARK  Name = .\Carvone.pdb
REMARK  3 active torsions:
REMARK  status: ('A' for Active; 'I' for Inactive)
REMARK    1  A    between atoms: C1_1  and  C2_2
REMARK    2  A    between atoms: C7_8  and  C8_9
REMARK    3  A    between atoms: C7_8  and  C9_10
REMARK                            x       y       z     vdW  Elec       q    Type
REMARK                         _______ _______ _______ _____ _____    ______ ____
ROOT
ATOM      1  C1  UNL     1     -13.892  84.342  98.405  0.00  0.00    +0.000 C 
ATOM      2  C2  UNL     1     -12.529  83.700  98.321  0.00  0.00    +0.000 C 
ATOM      3  C3  UNL     1     -12.019  83.496  97.096  0.00  0.00    +0.000 C 
ATOM      4  C4  UNL     1     -10.704  82.880  96.913  0.00  0.00    +0.000 C 
ATOM      5  O1  UNL     1     -10.245  82.699  95.755  0.00  0.00    +0.000 OA
ATOM      6  C5  UNL     1      -9.925  82.477  98.081  0.00  0.00    +0.000 C 
ATOM      7  C6  UNL     1     -10.404  82.667  99.310  0.00  0.00    +0.000 C 
ATOM      8  C7  UNL     1     -11.761  83.299  99.596  0.00  0.00    +0.000 C 
ATOM      9  C8  UNL     1     -12.587  82.270 100.393  0.00  0.00    +0.000 C 
ATOM     10  C9  UNL     1     -11.511  84.550 100.462  0.00  0.00    +0.000 C 
ENDROOT
TORSDOF 0
ENDMDL
MODEL 6
REMARK VINA RESULT:      -4.3      1.428      2.722
REMARK  Name = .\Carvone.pdb
REMARK  3 active torsions:
REMARK  status: ('A' for Active; 'I' for Inactive)
REMARK    1  A    between atoms: C1_1  and  C2_2
REMARK    2  A    between atoms: C7_8  and  C8_9
REMARK    3  A    between atoms: C7_8  and  C9_10
REMARK                            x       y       z     vdW  Elec       q    Type
REMARK                         _______ _______ _______ _____ _____    ______ ____
ROOT
ATOM      1  C1  UNL     1     -13.507  82.065  99.213  0.00  0.00    +0.000 C 
ATOM      2  C2  UNL     1     -12.583  82.802  98.275  0.00  0.00    +0.000 C 
ATOM      3  C3  UNL     1     -12.946  82.875  96.985  0.00  0.00    +0.000 C 
ATOM      4  C4  UNL     1     -12.115  83.569  96.000  0.00  0.00    +0.000 C 
ATOM      5  O1  UNL     1     -12.475  83.625  94.794  0.00  0.00    +0.000 OA
ATOM      6  C5  UNL     1     -10.865  84.195  96.420  0.00  0.00    +0.000 C 
ATOM      7  C6  UNL     1     -10.477  84.141  97.695  0.00  0.00    +0.000 C 
ATOM      8  C7  UNL     1     -11.277  83.441  98.788  0.00  0.00    +0.000 C 
ATOM      9  C8  UNL     1     -10.371  82.349  99.391  0.00  0.00    +0.000 C 
ATOM     10  C9  UNL     1     -11.607  84.496  99.861  0.00  0.00    +0.000 C 
ENDROOT
TORSDOF 0
ENDMDL
MODEL 7
REMARK VINA RESULT:      -4.3      2.111      3.598
REMARK  Name = .\Carvone.pdb
REMARK  3 active torsions:
REMARK  status: ('A' for Active; 'I' for Inactive)
REMARK    1  A    between atoms: C1_1  and  C2_2
REMARK    2  A    between atoms: C7_8  and  C8_9
REMARK    3  A    between atoms: C7_8  and  C9_10
REMARK                            x       y       z     vdW  Elec       q    Type
REMARK                         _______ _______ _______ _____ _____    ______ ____
ROOT
ATOM      1  C1  UNL     1     -12.427  84.154  99.158  0.00  0.00    +0.000 C 
ATOM      2  C2  UNL     1     -12.414  83.326  97.897  0.00  0.00    +0.000 C 
ATOM      3  C3  UNL     1     -13.551  82.694  97.564  0.00  0.00    +0.000 C 
ATOM      4  C4  UNL     1     -13.635  81.867  96.359  0.00  0.00    +0.000 C 
ATOM      5  O1  UNL     1     -14.712  81.283  96.066  0.00  0.00    +0.000 OA
ATOM      6  C5  UNL     1     -12.466  81.723  95.497  0.00  0.00    +0.000 C 
ATOM      7  C6  UNL     1     -11.323  82.339  95.800  0.00  0.00    +0.000 C 
ATOM      8  C7  UNL     1     -11.143  83.218  97.032  0.00  0.00    +0.000 C 
ATOM      9  C8  UNL     1     -10.002  82.605  97.869  0.00  0.00    +0.000 C 
ATOM     10  C9  UNL     1     -10.733  84.619  96.540  0.00  0.00    +0.000 C 
ENDROOT
TORSDOF 0
ENDMDL
MODEL 8
REMARK VINA RESULT:      -4.2      2.189      4.133
REMARK  Name = .\Carvone.pdb
REMARK  3 active torsions:
REMARK  status: ('A' for Active; 'I' for Inactive)
REMARK    1  A    between atoms: C1_1  and  C2_2
REMARK    2  A    between atoms: C7_8  and  C8_9
REMARK    3  A    between atoms: C7_8  and  C9_10
REMARK                            x       y       z     vdW  Elec       q    Type
REMARK                         _______ _______ _______ _____ _____    ______ ____
ROOT
ATOM      1  C1  UNL     1     -13.805  83.844  96.311  0.00  0.00    +0.000 C 
ATOM      2  C2  UNL     1     -12.720  83.671  97.347  0.00  0.00    +0.000 C 
ATOM      3  C3  UNL     1     -13.106  83.519  98.623  0.00  0.00    +0.000 C 
ATOM      4  C4  UNL     1     -12.127  83.344  99.698  0.00  0.00    +0.000 C 
ATOM      5  O1  UNL     1     -12.513  83.203 100.888  0.00  0.00    +0.000 OA
ATOM      6  C5  UNL     1     -10.702  83.336  99.383  0.00  0.00    +0.000 C 
ATOM      7  C6  UNL     1     -10.287  83.485  98.125  0.00  0.00    +0.000 C 
ATOM      8  C7  UNL     1     -11.232  83.672  96.944  0.00  0.00    +0.000 C 
ATOM      9  C8  UNL     1     -10.878  85.018  96.283  0.00  0.00    +0.000 C 
ATOM     10  C9  UNL     1     -10.965  82.519  95.957  0.00  0.00    +0.000 C 
ENDROOT
TORSDOF 0
ENDMDL
MODEL 9
REMARK VINA RESULT:      -4.2      2.753      4.274
REMARK  Name = .\Carvone.pdb
REMARK  3 active torsions:
REMARK  status: ('A' for Active; 'I' for Inactive)
REMARK    1  A    between atoms: C1_1  and  C2_2
REMARK    2  A    between atoms: C7_8  and  C8_9
REMARK    3  A    between atoms: C7_8  and  C9_10
REMARK                            x       y       z     vdW  Elec       q    Type
REMARK                         _______ _______ _______ _____ _____    ______ ____
ROOT
ATOM      1  C1  UNL     1     -12.576  84.700  98.674  0.00  0.00    +0.000 C 
ATOM      2  C2  UNL     1     -11.686  84.201  99.786  0.00  0.00    +0.000 C 
ATOM      3  C3  UNL     1     -11.532  84.998 100.855  0.00  0.00    +0.000 C 
ATOM      4  C4  UNL     1     -10.689  84.600 101.984  0.00  0.00    +0.000 C 
ATOM      5  O1  UNL     1     -10.559  85.364 102.977  0.00  0.00    +0.000 OA
ATOM      6  C5  UNL     1      -9.998  83.314 101.953  0.00  0.00    +0.000 C 
ATOM      7  C6  UNL     1     -10.132  82.500 100.906  0.00  0.00    +0.000 C 
ATOM      8  C7  UNL     1     -10.987  82.831  99.688  0.00  0.00    +0.000 C 
ATOM      9  C8  UNL     1     -10.059  82.813  98.458  0.00  0.00    +0.000 C 
ATOM     10  C9  UNL     1     -12.048  81.720  99.558  0.00  0.00    +0.000 C 
ENDROOT
TORSDOF 0
ENDMDL
