MODEL 1
REMARK VINA RESULT:      -5.3      0.000      0.000
REMARK  Name = .\Carvone.pdb
REMARK  3 active torsions:
REMARK  status: ('A' for Active; 'I' for Inactive)
REMARK    1  A    between atoms: C1_1  and  C2_2
REMARK    2  A    between atoms: C7_8  and  C8_9
REMARK    3  A    between atoms: C7_8  and  C9_10
REMARK                            x       y       z     vdW  Elec       q    Type
REMARK                         _______ _______ _______ _____ _____    ______ ____
ROOT
ATOM      1  C1  UNL     1     -11.413  51.122   7.563  0.00  0.00    +0.000 C 
ATOM      2  C2  UNL     1     -11.464  50.558   8.962  0.00  0.00    +0.000 C 
ATOM      3  C3  UNL     1     -10.683  49.498   9.228  0.00  0.00    +0.000 C 
ATOM      4  C4  UNL     1     -10.665  48.882  10.555  0.00  0.00    +0.000 C 
ATOM      5  O1  UNL     1      -9.924  47.889  10.782  0.00  0.00    +0.000 OA
ATOM      6  C5  UNL     1     -11.508  49.425  11.616  0.00  0.00    +0.000 C 
ATOM      7  C6  UNL     1     -12.293  50.477  11.384  0.00  0.00    +0.000 C 
ATOM      8  C7  UNL     1     -12.378  51.181  10.035  0.00  0.00    +0.000 C 
ATOM      9  C8  UNL     1     -13.845  51.104   9.569  0.00  0.00    +0.000 C 
ATOM     10  C9  UNL     1     -11.979  52.653  10.261  0.00  0.00    +0.000 C 
ENDROOT
TORSDOF 0
ENDMDL
MODEL 2
REMARK VINA RESULT:      -4.9      2.423      3.638
REMARK  Name = .\Carvone.pdb
REMARK  3 active torsions:
REMARK  status: ('A' for Active; 'I' for Inactive)
REMARK    1  A    between atoms: C1_1  and  C2_2
REMARK    2  A    between atoms: C7_8  and  C8_9
REMARK    3  A    between atoms: C7_8  and  C9_10
REMARK                            x       y       z     vdW  Elec       q    Type
REMARK                         _______ _______ _______ _____ _____    ______ ____
ROOT
ATOM      1  C1  UNL     1     -10.745  49.292   9.024  0.00  0.00    +0.000 C 
ATOM      2  C2  UNL     1     -11.374  50.664   9.000  0.00  0.00    +0.000 C 
ATOM      3  C3  UNL     1     -11.101  51.448   7.945  0.00  0.00    +0.000 C 
ATOM      4  C4  UNL     1     -11.663  52.795   7.832  0.00  0.00    +0.000 C 
ATOM      5  O1  UNL     1     -11.394  53.512   6.833  0.00  0.00    +0.000 OA
ATOM      6  C5  UNL     1     -12.539  53.303   8.884  0.00  0.00    +0.000 C 
ATOM      7  C6  UNL     1     -12.830  52.549   9.944  0.00  0.00    +0.000 C 
ATOM      8  C7  UNL     1     -12.290  51.137  10.146  0.00  0.00    +0.000 C 
ATOM      9  C8  UNL     1     -11.502  51.133  11.471  0.00  0.00    +0.000 C 
ATOM     10  C9  UNL     1     -13.504  50.194  10.257  0.00  0.00    +0.000 C 
ENDROOT
TORSDOF 0
ENDMDL
MODEL 3
REMARK VINA RESULT:      -4.9      1.487      3.022
REMARK  Name = .\Carvone.pdb
REMARK  3 active torsions:
REMARK  status: ('A' for Active; 'I' for Inactive)
REMARK    1  A    between atoms: C1_1  and  C2_2
REMARK    2  A    between atoms: C7_8  and  C8_9
REMARK    3  A    between atoms: C7_8  and  C9_10
REMARK                            x       y       z     vdW  Elec       q    Type
REMARK                         _______ _______ _______ _____ _____    ______ ____
ROOT
ATOM      1  C1  UNL     1     -12.419  54.101   9.881  0.00  0.00    +0.000 C 
ATOM      2  C2  UNL     1     -11.969  52.706   9.525  0.00  0.00    +0.000 C 
ATOM      3  C3  UNL     1     -11.686  51.872  10.539  0.00  0.00    +0.000 C 
ATOM      4  C4  UNL     1     -11.242  50.499  10.294  0.00  0.00    +0.000 C 
ATOM      5  O1  UNL     1     -10.983  49.735  11.261  0.00  0.00    +0.000 OA
ATOM      6  C5  UNL     1     -11.100  50.020   8.922  0.00  0.00    +0.000 C 
ATOM      7  C6  UNL     1     -11.373  50.823   7.894  0.00  0.00    +0.000 C 
ATOM      8  C7  UNL     1     -11.841  52.265   8.054  0.00  0.00    +0.000 C 
ATOM      9  C8  UNL     1     -10.814  53.162   7.335  0.00  0.00    +0.000 C 
ATOM     10  C9  UNL     1     -13.212  52.382   7.360  0.00  0.00    +0.000 C 
ENDROOT
TORSDOF 0
ENDMDL
MODEL 4
REMARK VINA RESULT:      -4.9      2.755      4.266
REMARK  Name = .\Carvone.pdb
REMARK  3 active torsions:
REMARK  status: ('A' for Active; 'I' for Inactive)
REMARK    1  A    between atoms: C1_1  and  C2_2
REMARK    2  A    between atoms: C7_8  and  C8_9
REMARK    3  A    between atoms: C7_8  and  C9_10
REMARK                            x       y       z     vdW  Elec       q    Type
REMARK                         _______ _______ _______ _____ _____    ______ ____
ROOT
ATOM      1  C1  UNL     1     -11.313  51.399  11.510  0.00  0.00    +0.000 C 
ATOM      2  C2  UNL     1     -11.659  51.936  10.142  0.00  0.00    +0.000 C 
ATOM      3  C3  UNL     1     -11.501  53.254   9.940  0.00  0.00    +0.000 C 
ATOM      4  C4  UNL     1     -11.811  53.866   8.647  0.00  0.00    +0.000 C 
ATOM      5  O1  UNL     1     -11.655  55.105   8.480  0.00  0.00    +0.000 OA
ATOM      6  C5  UNL     1     -12.302  53.035   7.552  0.00  0.00    +0.000 C 
ATOM      7  C6  UNL     1     -12.469  51.724   7.721  0.00  0.00    +0.000 C 
ATOM      8  C7  UNL     1     -12.173  51.001   9.030  0.00  0.00    +0.000 C 
ATOM      9  C8  UNL     1     -13.482  50.327   9.487  0.00  0.00    +0.000 C 
ATOM     10  C9  UNL     1     -11.110  49.926   8.729  0.00  0.00    +0.000 C 
ENDROOT
TORSDOF 0
ENDMDL
MODEL 5
REMARK VINA RESULT:      -4.8      3.053      4.478
REMARK  Name = .\Carvone.pdb
REMARK  3 active torsions:
REMARK  status: ('A' for Active; 'I' for Inactive)
REMARK    1  A    between atoms: C1_1  and  C2_2
REMARK    2  A    between atoms: C7_8  and  C8_9
REMARK    3  A    between atoms: C7_8  and  C9_10
REMARK                            x       y       z     vdW  Elec       q    Type
REMARK                         _______ _______ _______ _____ _____    ______ ____
ROOT
ATOM      1  C1  UNL     1     -14.434  50.584   9.801  0.00  0.00    +0.000 C 
ATOM      2  C2  UNL     1     -13.488  51.502   9.066  0.00  0.00    +0.000 C 
ATOM      3  C3  UNL     1     -14.029  52.410   8.238  0.00  0.00    +0.000 C 
ATOM      4  C4  UNL     1     -13.192  53.343   7.482  0.00  0.00    +0.000 C 
ATOM      5  O1  UNL     1     -13.722  54.186   6.711  0.00  0.00    +0.000 OA
ATOM      6  C5  UNL     1     -11.740  53.292   7.626  0.00  0.00    +0.000 C 
ATOM      7  C6  UNL     1     -11.172  52.403   8.440  0.00  0.00    +0.000 C 
ATOM      8  C7  UNL     1     -11.963  51.393   9.265  0.00  0.00    +0.000 C 
ATOM      9  C8  UNL     1     -11.488  49.988   8.847  0.00  0.00    +0.000 C 
ATOM     10  C9  UNL     1     -11.618  51.642  10.746  0.00  0.00    +0.000 C 
ENDROOT
TORSDOF 0
ENDMDL
MODEL 6
REMARK VINA RESULT:      -4.8      3.894      5.494
REMARK  Name = .\Carvone.pdb
REMARK  3 active torsions:
REMARK  status: ('A' for Active; 'I' for Inactive)
REMARK    1  A    between atoms: C1_1  and  C2_2
REMARK    2  A    between atoms: C7_8  and  C8_9
REMARK    3  A    between atoms: C7_8  and  C9_10
REMARK                            x       y       z     vdW  Elec       q    Type
REMARK                         _______ _______ _______ _____ _____    ______ ____
ROOT
ATOM      1  C1  UNL     1     -14.235  54.890  10.093  0.00  0.00    +0.000 C 
ATOM      2  C2  UNL     1     -13.736  54.216   8.838  0.00  0.00    +0.000 C 
ATOM      3  C3  UNL     1     -14.620  54.034   7.844  0.00  0.00    +0.000 C 
ATOM      4  C4  UNL     1     -14.229  53.390   6.588  0.00  0.00    +0.000 C 
ATOM      5  O1  UNL     1     -15.075  53.230   5.669  0.00  0.00    +0.000 OA
ATOM      6  C5  UNL     1     -12.855  52.933   6.407  0.00  0.00    +0.000 C 
ATOM      7  C6  UNL     1     -11.954  53.099   7.375  0.00  0.00    +0.000 C 
ATOM      8  C7  UNL     1     -12.270  53.758   8.713  0.00  0.00    +0.000 C 
ATOM      9  C8  UNL     1     -11.956  52.728   9.816  0.00  0.00    +0.000 C 
ATOM     10  C9  UNL     1     -11.336  54.976   8.856  0.00  0.00    +0.000 C 
ENDROOT
TORSDOF 0
ENDMDL
MODEL 7
REMARK VINA RESULT:      -4.7      1.253      2.595
REMARK  Name = .\Carvone.pdb
REMARK  3 active torsions:
REMARK  status: ('A' for Active; 'I' for Inactive)
REMARK    1  A    between atoms: C1_1  and  C2_2
REMARK    2  A    between atoms: C7_8  and  C8_9
REMARK    3  A    between atoms: C7_8  and  C9_10
REMARK                            x       y       z     vdW  Elec       q    Type
REMARK                         _______ _______ _______ _____ _____    ______ ____
ROOT
ATOM      1  C1  UNL     1     -14.442  51.695  10.310  0.00  0.00    +0.000 C 
ATOM      2  C2  UNL     1     -13.144  50.958  10.532  0.00  0.00    +0.000 C 
ATOM      3  C3  UNL     1     -13.094  50.092  11.556  0.00  0.00    +0.000 C 
ATOM      4  C4  UNL     1     -11.879  49.331  11.850  0.00  0.00    +0.000 C 
ATOM      5  O1  UNL     1     -11.856  48.523  12.817  0.00  0.00    +0.000 OA
ATOM      6  C5  UNL     1     -10.693  49.512  11.019  0.00  0.00    +0.000 C 
ATOM      7  C6  UNL     1     -10.710  50.365   9.994  0.00  0.00    +0.000 C 
ATOM      8  C7  UNL     1     -11.929  51.198   9.614  0.00  0.00    +0.000 C 
ATOM      9  C8  UNL     1     -11.512  52.680   9.689  0.00  0.00    +0.000 C 
ATOM     10  C9  UNL     1     -12.299  50.833   8.163  0.00  0.00    +0.000 C 
ENDROOT
TORSDOF 0
ENDMDL
MODEL 8
REMARK VINA RESULT:      -4.7      2.215      3.274
REMARK  Name = .\Carvone.pdb
REMARK  3 active torsions:
REMARK  status: ('A' for Active; 'I' for Inactive)
REMARK    1  A    between atoms: C1_1  and  C2_2
REMARK    2  A    between atoms: C7_8  and  C8_9
REMARK    3  A    between atoms: C7_8  and  C9_10
REMARK                            x       y       z     vdW  Elec       q    Type
REMARK                         _______ _______ _______ _____ _____    ______ ____
ROOT
ATOM      1  C1  UNL     1     -14.066  52.653   7.874  0.00  0.00    +0.000 C 
ATOM      2  C2  UNL     1     -13.703  51.744   9.023  0.00  0.00    +0.000 C 
ATOM      3  C3  UNL     1     -14.712  51.217   9.734  0.00  0.00    +0.000 C 
ATOM      4  C4  UNL     1     -14.458  50.324  10.866  0.00  0.00    +0.000 C 
ATOM      5  O1  UNL     1     -15.421  49.841  11.519  0.00  0.00    +0.000 OA
ATOM      6  C5  UNL     1     -13.085  49.996  11.235  0.00  0.00    +0.000 C 
ATOM      7  C6  UNL     1     -12.061  50.503  10.548  0.00  0.00    +0.000 C 
ATOM      8  C7  UNL     1     -12.229  51.440   9.357  0.00  0.00    +0.000 C 
ATOM      9  C8  UNL     1     -11.497  52.752   9.700  0.00  0.00    +0.000 C 
ATOM     10  C9  UNL     1     -11.554  50.767   8.146  0.00  0.00    +0.000 C 
ENDROOT
TORSDOF 0
ENDMDL
MODEL 9
REMARK VINA RESULT:      -4.7      2.111      3.511
REMARK  Name = .\Carvone.pdb
REMARK  3 active torsions:
REMARK  status: ('A' for Active; 'I' for Inactive)
REMARK    1  A    between atoms: C1_1  and  C2_2
REMARK    2  A    between atoms: C7_8  and  C8_9
REMARK    3  A    between atoms: C7_8  and  C9_10
REMARK                            x       y       z     vdW  Elec       q    Type
REMARK                         _______ _______ _______ _____ _____    ______ ____
ROOT
ATOM      1  C1  UNL     1     -15.104  51.805  10.031  0.00  0.00    +0.000 C 
ATOM      2  C2  UNL     1     -13.803  51.843   9.267  0.00  0.00    +0.000 C 
ATOM      3  C3  UNL     1     -13.096  50.704   9.196  0.00  0.00    +0.000 C 
ATOM      4  C4  UNL     1     -11.823  50.642   8.477  0.00  0.00    +0.000 C 
ATOM      5  O1  UNL     1     -11.177  49.562   8.424  0.00  0.00    +0.000 OA
ATOM      6  C5  UNL     1     -11.303  51.839   7.823  0.00  0.00    +0.000 C 
ATOM      7  C6  UNL     1     -11.982  52.986   7.874  0.00  0.00    +0.000 C 
ATOM      8  C7  UNL     1     -13.314  53.143   8.599  0.00  0.00    +0.000 C 
ATOM      9  C8  UNL     1     -13.126  54.234   9.671  0.00  0.00    +0.000 C 
ATOM     10  C9  UNL     1     -14.350  53.608   7.557  0.00  0.00    +0.000 C 
ENDROOT
TORSDOF 0
ENDMDL
