MODEL 1
REMARK VINA RESULT:      -4.6      0.000      0.000
REMARK  Name = .\Carvone.pdb
REMARK  3 active torsions:
REMARK  status: ('A' for Active; 'I' for Inactive)
REMARK    1  A    between atoms: C1_1  and  C2_2
REMARK    2  A    between atoms: C7_8  and  C8_9
REMARK    3  A    between atoms: C7_8  and  C9_10
REMARK                            x       y       z     vdW  Elec       q    Type
REMARK                         _______ _______ _______ _____ _____    ______ ____
ROOT
ATOM      1  C1  UNL     1     -10.389  90.730 135.391  0.00  0.00    +0.000 C 
ATOM      2  C2  UNL     1     -11.477  91.646 134.886  0.00  0.00    +0.000 C 
ATOM      3  C3  UNL     1     -11.175  92.947 134.751  0.00  0.00    +0.000 C 
ATOM      4  C4  UNL     1     -12.164  93.911 134.269  0.00  0.00    +0.000 C 
ATOM      5  O1  UNL     1     -11.858  95.127 134.150  0.00  0.00    +0.000 OA
ATOM      6  C5  UNL     1     -13.509  93.458 133.926  0.00  0.00    +0.000 C 
ATOM      7  C6  UNL     1     -13.840  92.172 134.048  0.00  0.00    +0.000 C 
ATOM      8  C7  UNL     1     -12.877  91.099 134.542  0.00  0.00    +0.000 C 
ATOM      9  C8  UNL     1     -13.504  90.463 135.798  0.00  0.00    +0.000 C 
ATOM     10  C9  UNL     1     -12.757  90.042 133.426  0.00  0.00    +0.000 C 
ENDROOT
TORSDOF 0
ENDMDL
MODEL 2
REMARK VINA RESULT:      -4.5      0.528      2.555
REMARK  Name = .\Carvone.pdb
REMARK  3 active torsions:
REMARK  status: ('A' for Active; 'I' for Inactive)
REMARK    1  A    between atoms: C1_1  and  C2_2
REMARK    2  A    between atoms: C7_8  and  C8_9
REMARK    3  A    between atoms: C7_8  and  C9_10
REMARK                            x       y       z     vdW  Elec       q    Type
REMARK                         _______ _______ _______ _____ _____    ______ ____
ROOT
ATOM      1  C1  UNL     1     -15.146  91.520 133.672  0.00  0.00    +0.000 C 
ATOM      2  C2  UNL     1     -13.750  91.969 134.028  0.00  0.00    +0.000 C 
ATOM      3  C3  UNL     1     -13.485  93.283 133.943  0.00  0.00    +0.000 C 
ATOM      4  C4  UNL     1     -12.161  93.813 134.268  0.00  0.00    +0.000 C 
ATOM      5  O1  UNL     1     -11.935  95.050 134.182  0.00  0.00    +0.000 OA
ATOM      6  C5  UNL     1     -11.101  92.903 134.692  0.00  0.00    +0.000 C 
ATOM      7  C6  UNL     1     -11.332  91.594 134.787  0.00  0.00    +0.000 C 
ATOM      8  C7  UNL     1     -12.678  90.953 134.469  0.00  0.00    +0.000 C 
ATOM      9  C8  UNL     1     -12.444  89.929 133.341  0.00  0.00    +0.000 C 
ATOM     10  C9  UNL     1     -13.151  90.226 135.743  0.00  0.00    +0.000 C 
ENDROOT
TORSDOF 0
ENDMDL
MODEL 3
REMARK VINA RESULT:      -4.5      1.729      3.466
REMARK  Name = .\Carvone.pdb
REMARK  3 active torsions:
REMARK  status: ('A' for Active; 'I' for Inactive)
REMARK    1  A    between atoms: C1_1  and  C2_2
REMARK    2  A    between atoms: C7_8  and  C8_9
REMARK    3  A    between atoms: C7_8  and  C9_10
REMARK                            x       y       z     vdW  Elec       q    Type
REMARK                         _______ _______ _______ _____ _____    ______ ____
ROOT
ATOM      1  C1  UNL     1     -15.276  91.595 133.642  0.00  0.00    +0.000 C 
ATOM      2  C2  UNL     1     -14.075  92.480 133.868  0.00  0.00    +0.000 C 
ATOM      3  C3  UNL     1     -12.941  91.888 134.274  0.00  0.00    +0.000 C 
ATOM      4  C4  UNL     1     -11.724  92.663 134.519  0.00  0.00    +0.000 C 
ATOM      5  O1  UNL     1     -10.671  92.086 134.899  0.00  0.00    +0.000 OA
ATOM      6  C5  UNL     1     -11.736  94.110 134.321  0.00  0.00    +0.000 C 
ATOM      7  C6  UNL     1     -12.846  94.727 133.918  0.00  0.00    +0.000 C 
ATOM      8  C7  UNL     1     -14.158  94.002 133.639  0.00  0.00    +0.000 C 
ATOM      9  C8  UNL     1     -15.223  94.607 134.575  0.00  0.00    +0.000 C 
ATOM     10  C9  UNL     1     -14.533  94.283 132.171  0.00  0.00    +0.000 C 
ENDROOT
TORSDOF 0
ENDMDL
MODEL 4
REMARK VINA RESULT:      -4.4      2.295      3.861
REMARK  Name = .\Carvone.pdb
REMARK  3 active torsions:
REMARK  status: ('A' for Active; 'I' for Inactive)
REMARK    1  A    between atoms: C1_1  and  C2_2
REMARK    2  A    between atoms: C7_8  and  C8_9
REMARK    3  A    between atoms: C7_8  and  C9_10
REMARK                            x       y       z     vdW  Elec       q    Type
REMARK                         _______ _______ _______ _____ _____    ______ ____
ROOT
ATOM      1  C1  UNL     1     -14.792  93.144 134.048  0.00  0.00    +0.000 C 
ATOM      2  C2  UNL     1     -13.611  92.222 134.232  0.00  0.00    +0.000 C 
ATOM      3  C3  UNL     1     -13.698  90.994 133.697  0.00  0.00    +0.000 C 
ATOM      4  C4  UNL     1     -12.604  90.030 133.824  0.00  0.00    +0.000 C 
ATOM      5  O1  UNL     1     -12.708  88.884 133.313  0.00  0.00    +0.000 OA
ATOM      6  C5  UNL     1     -11.391  90.404 134.545  0.00  0.00    +0.000 C 
ATOM      7  C6  UNL     1     -11.273  91.616 135.087  0.00  0.00    +0.000 C 
ATOM      8  C7  UNL     1     -12.359  92.683 135.006  0.00  0.00    +0.000 C 
ATOM      9  C8  UNL     1     -12.752  93.047 136.451  0.00  0.00    +0.000 C 
ATOM     10  C9  UNL     1     -11.744  93.911 134.307  0.00  0.00    +0.000 C 
ENDROOT
TORSDOF 0
ENDMDL
MODEL 5
REMARK VINA RESULT:      -4.2      1.209      1.653
REMARK  Name = .\Carvone.pdb
REMARK  3 active torsions:
REMARK  status: ('A' for Active; 'I' for Inactive)
REMARK    1  A    between atoms: C1_1  and  C2_2
REMARK    2  A    between atoms: C7_8  and  C8_9
REMARK    3  A    between atoms: C7_8  and  C9_10
REMARK                            x       y       z     vdW  Elec       q    Type
REMARK                         _______ _______ _______ _____ _____    ______ ____
ROOT
ATOM      1  C1  UNL     1     -12.347  90.539 134.563  0.00  0.00    +0.000 C 
ATOM      2  C2  UNL     1     -12.855  91.945 134.355  0.00  0.00    +0.000 C 
ATOM      3  C3  UNL     1     -11.952  92.938 134.393  0.00  0.00    +0.000 C 
ATOM      4  C4  UNL     1     -12.349  94.334 134.203  0.00  0.00    +0.000 C 
ATOM      5  O1  UNL     1     -11.485  95.249 134.242  0.00  0.00    +0.000 OA
ATOM      6  C5  UNL     1     -13.753  94.661 133.967  0.00  0.00    +0.000 C 
ATOM      7  C6  UNL     1     -14.673  93.698 133.923  0.00  0.00    +0.000 C 
ATOM      8  C7  UNL     1     -14.352  92.219 134.111  0.00  0.00    +0.000 C 
ATOM      9  C8  UNL     1     -15.170  91.722 135.318  0.00  0.00    +0.000 C 
ATOM     10  C9  UNL     1     -14.808  91.486 132.834  0.00  0.00    +0.000 C 
ENDROOT
TORSDOF 0
ENDMDL
MODEL 6
REMARK VINA RESULT:      -4.2      1.554      2.489
REMARK  Name = .\Carvone.pdb
REMARK  3 active torsions:
REMARK  status: ('A' for Active; 'I' for Inactive)
REMARK    1  A    between atoms: C1_1  and  C2_2
REMARK    2  A    between atoms: C7_8  and  C8_9
REMARK    3  A    between atoms: C7_8  and  C9_10
REMARK                            x       y       z     vdW  Elec       q    Type
REMARK                         _______ _______ _______ _____ _____    ______ ____
ROOT
ATOM      1  C1  UNL     1     -12.742  89.962 137.399  0.00  0.00    +0.000 C 
ATOM      2  C2  UNL     1     -12.344  91.054 136.436  0.00  0.00    +0.000 C 
ATOM      3  C3  UNL     1     -12.890  92.266 136.620  0.00  0.00    +0.000 C 
ATOM      4  C4  UNL     1     -12.565  93.387 135.736  0.00  0.00    +0.000 C 
ATOM      5  O1  UNL     1     -13.089  94.516 135.928  0.00  0.00    +0.000 OA
ATOM      6  C5  UNL     1     -11.631  93.191 134.632  0.00  0.00    +0.000 C 
ATOM      7  C6  UNL     1     -11.071  91.999 134.424  0.00  0.00    +0.000 C 
ATOM      8  C7  UNL     1     -11.350  90.777 135.291  0.00  0.00    +0.000 C 
ATOM      9  C8  UNL     1     -11.920  89.681 134.368  0.00  0.00    +0.000 C 
ATOM     10  C9  UNL     1     -10.002  90.315 135.878  0.00  0.00    +0.000 C 
ENDROOT
TORSDOF 0
ENDMDL
MODEL 7
REMARK VINA RESULT:      -4.1      4.270      5.707
REMARK  Name = .\Carvone.pdb
REMARK  3 active torsions:
REMARK  status: ('A' for Active; 'I' for Inactive)
REMARK    1  A    between atoms: C1_1  and  C2_2
REMARK    2  A    between atoms: C7_8  and  C8_9
REMARK    3  A    between atoms: C7_8  and  C9_10
REMARK                            x       y       z     vdW  Elec       q    Type
REMARK                         _______ _______ _______ _____ _____    ______ ____
ROOT
ATOM      1  C1  UNL     1     -15.756  94.758 135.096  0.00  0.00    +0.000 C 
ATOM      2  C2  UNL     1     -15.488  95.769 134.007  0.00  0.00    +0.000 C 
ATOM      3  C3  UNL     1     -16.259  96.867 133.984  0.00  0.00    +0.000 C 
ATOM      4  C4  UNL     1     -16.075  97.904 132.966  0.00  0.00    +0.000 C 
ATOM      5  O1  UNL     1     -16.810  98.926 132.964  0.00  0.00    +0.000 OA
ATOM      6  C5  UNL     1     -15.035  97.747 131.954  0.00  0.00    +0.000 C 
ATOM      7  C6  UNL     1     -14.253  96.667 131.951  0.00  0.00    +0.000 C 
ATOM      8  C7  UNL     1     -14.372  95.539 132.969  0.00  0.00    +0.000 C 
ATOM      9  C8  UNL     1     -14.656  94.243 132.186  0.00  0.00    +0.000 C 
ATOM     10  C9  UNL     1     -13.014  95.427 133.689  0.00  0.00    +0.000 C 
ENDROOT
TORSDOF 0
ENDMDL
MODEL 8
REMARK VINA RESULT:      -4.0      2.092      3.349
REMARK  Name = .\Carvone.pdb
REMARK  3 active torsions:
REMARK  status: ('A' for Active; 'I' for Inactive)
REMARK    1  A    between atoms: C1_1  and  C2_2
REMARK    2  A    between atoms: C7_8  and  C8_9
REMARK    3  A    between atoms: C7_8  and  C9_10
REMARK                            x       y       z     vdW  Elec       q    Type
REMARK                         _______ _______ _______ _____ _____    ______ ____
ROOT
ATOM      1  C1  UNL     1     -11.826  94.088 134.361  0.00  0.00    +0.000 C 
ATOM      2  C2  UNL     1     -12.034  92.641 134.736  0.00  0.00    +0.000 C 
ATOM      3  C3  UNL     1     -10.940  91.876 134.867  0.00  0.00    +0.000 C 
ATOM      4  C4  UNL     1     -11.041  90.461 135.228  0.00  0.00    +0.000 C 
ATOM      5  O1  UNL     1     -10.000  89.762 135.345  0.00  0.00    +0.000 OA
ATOM      6  C5  UNL     1     -12.354  89.863 135.451  0.00  0.00    +0.000 C 
ATOM      7  C6  UNL     1     -13.460  90.597 135.330  0.00  0.00    +0.000 C 
ATOM      8  C7  UNL     1     -13.451  92.076 134.958  0.00  0.00    +0.000 C 
ATOM      9  C8  UNL     1     -14.274  92.227 133.664  0.00  0.00    +0.000 C 
ATOM     10  C9  UNL     1     -14.138  92.841 136.106  0.00  0.00    +0.000 C 
ENDROOT
TORSDOF 0
ENDMDL
MODEL 9
REMARK VINA RESULT:      -4.0      2.470      3.737
REMARK  Name = .\Carvone.pdb
REMARK  3 active torsions:
REMARK  status: ('A' for Active; 'I' for Inactive)
REMARK    1  A    between atoms: C1_1  and  C2_2
REMARK    2  A    between atoms: C7_8  and  C8_9
REMARK    3  A    between atoms: C7_8  and  C9_10
REMARK                            x       y       z     vdW  Elec       q    Type
REMARK                         _______ _______ _______ _____ _____    ______ ____
ROOT
ATOM      1  C1  UNL     1     -14.214  93.412 136.882  0.00  0.00    +0.000 C 
ATOM      2  C2  UNL     1     -13.037  92.659 136.313  0.00  0.00    +0.000 C 
ATOM      3  C3  UNL     1     -12.422  91.778 137.118  0.00  0.00    +0.000 C 
ATOM      4  C4  UNL     1     -11.271  91.000 136.656  0.00  0.00    +0.000 C 
ATOM      5  O1  UNL     1     -10.711  90.179 137.429  0.00  0.00    +0.000 OA
ATOM      6  C5  UNL     1     -10.776  91.180 135.294  0.00  0.00    +0.000 C 
ATOM      7  C6  UNL     1     -11.365  92.047 134.470  0.00  0.00    +0.000 C 
ATOM      8  C7  UNL     1     -12.566  92.899 134.865  0.00  0.00    +0.000 C 
ATOM      9  C8  UNL     1     -12.157  94.375 134.694  0.00  0.00    +0.000 C 
ATOM     10  C9  UNL     1     -13.710  92.558 133.889  0.00  0.00    +0.000 C 
ENDROOT
TORSDOF 0
ENDMDL
