MODEL 1
REMARK VINA RESULT:      -4.4      0.000      0.000
REMARK  Name = .\Carvacrol.pdb
REMARK  5 active torsions:
REMARK  status: ('A' for Active; 'I' for Inactive)
REMARK    1  A    between atoms: C1_1  and  C2_2
REMARK    2  A    between atoms: C2_2  and  C3_3
REMARK    3  A    between atoms: C2_2  and  C4_4
REMARK    4  A    between atoms: C6_6  and  O1_11
REMARK    5  A    between atoms: C7_7  and  C10_10
REMARK                            x       y       z     vdW  Elec       q    Type
REMARK                         _______ _______ _______ _____ _____    ______ ____
ROOT
ATOM      1  C4  UNL     1       0.686 100.117  98.570  0.00  0.00    +0.000 A 
ATOM      2  C5  UNL     1      -0.183  99.202  97.952  0.00  0.00    +0.000 A 
ATOM      3  C6  UNL     1      -0.023  98.863  96.601  0.00  0.00    +0.000 A 
ATOM      4  C7  UNL     1       1.016  99.440  95.850  0.00  0.00    +0.000 A 
ATOM      5  C8  UNL     1       1.885 100.355  96.465  0.00  0.00    +0.000 A 
ATOM      6  C9  UNL     1       1.723 100.690  97.811  0.00  0.00    +0.000 A 
ATOM      7  C10 UNL     1       1.193  99.082  94.402  0.00  0.00    +0.000 C 
ENDROOT
BRANCH   1   9
ATOM      8  C1  UNL     1       1.724 101.213 100.583  0.00  0.00    +0.000 C 
ATOM      9  C2  UNL     1       0.498 100.474 100.033  0.00  0.00    +0.000 C 
ATOM     10  C3  UNL     1      -0.781 101.292 100.243  0.00  0.00    +0.000 C 
ENDBRANCH   1   9
BRANCH   3  11
ATOM     11  O1  UNL     1      -0.894  97.953  96.001  0.00  0.00    +0.000 OA
ATOM     12  H14 UNL     1      -0.650  97.469  95.145  0.00  0.00    +0.000 HD
ENDBRANCH   3  11
TORSDOF 2
ENDMDL
MODEL 2
REMARK VINA RESULT:      -4.4      1.988      5.637
REMARK  Name = .\Carvacrol.pdb
REMARK  5 active torsions:
REMARK  status: ('A' for Active; 'I' for Inactive)
REMARK    1  A    between atoms: C1_1  and  C2_2
REMARK    2  A    between atoms: C2_2  and  C3_3
REMARK    3  A    between atoms: C2_2  and  C4_4
REMARK    4  A    between atoms: C6_6  and  O1_11
REMARK    5  A    between atoms: C7_7  and  C10_10
REMARK                            x       y       z     vdW  Elec       q    Type
REMARK                         _______ _______ _______ _____ _____    ______ ____
ROOT
ATOM      1  C4  UNL     1       0.853  98.772  93.201  0.00  0.00    +0.000 A 
ATOM      2  C5  UNL     1      -0.103  98.130  94.006  0.00  0.00    +0.000 A 
ATOM      3  C6  UNL     1      -0.170  98.389  95.383  0.00  0.00    +0.000 A 
ATOM      4  C7  UNL     1       0.727  99.298  95.971  0.00  0.00    +0.000 A 
ATOM      5  C8  UNL     1       1.683  99.940  95.169  0.00  0.00    +0.000 A 
ATOM      6  C9  UNL     1       1.746  99.680  93.797  0.00  0.00    +0.000 A 
ATOM      7  C10 UNL     1       0.661  99.579  97.445  0.00  0.00    +0.000 C 
ENDROOT
BRANCH   1   9
ATOM      8  C1  UNL     1       0.565  99.729  90.891  0.00  0.00    +0.000 C 
ATOM      9  C2  UNL     1       0.911  98.481  91.712  0.00  0.00    +0.000 C 
ATOM     10  C3  UNL     1       2.281  97.919  91.312  0.00  0.00    +0.000 C 
ENDBRANCH   1   9
BRANCH   3  11
ATOM     11  O1  UNL     1      -1.125  97.743  96.169  0.00  0.00    +0.000 OA
ATOM     12  H14 UNL     1      -1.319  96.754  96.064  0.00  0.00    +0.000 HD
ENDBRANCH   3  11
TORSDOF 2
ENDMDL
MODEL 3
REMARK VINA RESULT:      -4.0      1.211      4.365
REMARK  Name = .\Carvacrol.pdb
REMARK  5 active torsions:
REMARK  status: ('A' for Active; 'I' for Inactive)
REMARK    1  A    between atoms: C1_1  and  C2_2
REMARK    2  A    between atoms: C2_2  and  C3_3
REMARK    3  A    between atoms: C2_2  and  C4_4
REMARK    4  A    between atoms: C6_6  and  O1_11
REMARK    5  A    between atoms: C7_7  and  C10_10
REMARK                            x       y       z     vdW  Elec       q    Type
REMARK                         _______ _______ _______ _____ _____    ______ ____
ROOT
ATOM      1  C4  UNL     1       1.730  99.976  95.683  0.00  0.00    +0.000 A 
ATOM      2  C5  UNL     1       0.606  99.280  96.160  0.00  0.00    +0.000 A 
ATOM      3  C6  UNL     1       0.199  99.407  97.496  0.00  0.00    +0.000 A 
ATOM      4  C7  UNL     1       0.920 100.235  98.374  0.00  0.00    +0.000 A 
ATOM      5  C8  UNL     1       2.043 100.930  97.900  0.00  0.00    +0.000 A 
ATOM      6  C9  UNL     1       2.445 100.802  96.568  0.00  0.00    +0.000 A 
ATOM      7  C10 UNL     1       0.491 100.375  99.807  0.00  0.00    +0.000 C 
ENDROOT
BRANCH   1   9
ATOM      8  C1  UNL     1       1.052  99.169  93.398  0.00  0.00    +0.000 C 
ATOM      9  C2  UNL     1       2.156  99.828  94.234  0.00  0.00    +0.000 C 
ATOM     10  C3  UNL     1       2.568 101.179  93.638  0.00  0.00    +0.000 C 
ENDBRANCH   1   9
BRANCH   3  11
ATOM     11  O1  UNL     1      -0.918  98.709  97.955  0.00  0.00    +0.000 OA
ATOM     12  H14 UNL     1      -1.235  97.858  97.505  0.00  0.00    +0.000 HD
ENDBRANCH   3  11
TORSDOF 2
ENDMDL
MODEL 4
REMARK VINA RESULT:      -3.9      1.186      1.880
REMARK  Name = .\Carvacrol.pdb
REMARK  5 active torsions:
REMARK  status: ('A' for Active; 'I' for Inactive)
REMARK    1  A    between atoms: C1_1  and  C2_2
REMARK    2  A    between atoms: C2_2  and  C3_3
REMARK    3  A    between atoms: C2_2  and  C4_4
REMARK    4  A    between atoms: C6_6  and  O1_11
REMARK    5  A    between atoms: C7_7  and  C10_10
REMARK                            x       y       z     vdW  Elec       q    Type
REMARK                         _______ _______ _______ _____ _____    ______ ____
ROOT
ATOM      1  C4  UNL     1       1.888 100.930  98.501  0.00  0.00    +0.000 A 
ATOM      2  C5  UNL     1       0.756 100.109  98.631  0.00  0.00    +0.000 A 
ATOM      3  C6  UNL     1       0.244  99.414  97.525  0.00  0.00    +0.000 A 
ATOM      4  C7  UNL     1       0.865  99.536  96.270  0.00  0.00    +0.000 A 
ATOM      5  C8  UNL     1       1.996 100.356  96.138  0.00  0.00    +0.000 A 
ATOM      6  C9  UNL     1       2.503 101.046  97.242  0.00  0.00    +0.000 A 
ATOM      7  C10 UNL     1       0.323  98.796  95.081  0.00  0.00    +0.000 C 
ENDROOT
BRANCH   1   9
ATOM      8  C1  UNL     1       1.574 101.404 100.952  0.00  0.00    +0.000 C 
ATOM      9  C2  UNL     1       2.429 101.675  99.708  0.00  0.00    +0.000 C 
ATOM     10  C3  UNL     1       3.900 101.324  99.961  0.00  0.00    +0.000 C 
ENDBRANCH   1   9
BRANCH   3  11
ATOM     11  O1  UNL     1      -0.882  98.603  97.670  0.00  0.00    +0.000 OA
ATOM     12  H14 UNL     1      -0.824  97.594  97.589  0.00  0.00    +0.000 HD
ENDBRANCH   3  11
TORSDOF 2
ENDMDL
MODEL 5
REMARK VINA RESULT:      -3.9      1.211      1.699
REMARK  Name = .\Carvacrol.pdb
REMARK  5 active torsions:
REMARK  status: ('A' for Active; 'I' for Inactive)
REMARK    1  A    between atoms: C1_1  and  C2_2
REMARK    2  A    between atoms: C2_2  and  C3_3
REMARK    3  A    between atoms: C2_2  and  C4_4
REMARK    4  A    between atoms: C6_6  and  O1_11
REMARK    5  A    between atoms: C7_7  and  C10_10
REMARK                            x       y       z     vdW  Elec       q    Type
REMARK                         _______ _______ _______ _____ _____    ______ ____
ROOT
ATOM      1  C4  UNL     1       1.147 100.859 100.019  0.00  0.00    +0.000 A 
ATOM      2  C5  UNL     1       0.159  99.985  99.534  0.00  0.00    +0.000 A 
ATOM      3  C6  UNL     1       0.157  99.581  98.191  0.00  0.00    +0.000 A 
ATOM      4  C7  UNL     1       1.151 100.051  97.314  0.00  0.00    +0.000 A 
ATOM      5  C8  UNL     1       2.139 100.924  97.797  0.00  0.00    +0.000 A 
ATOM      6  C9  UNL     1       2.138 101.324  99.135  0.00  0.00    +0.000 A 
ATOM      7  C10 UNL     1       1.156  99.623  95.875  0.00  0.00    +0.000 C 
ENDROOT
BRANCH   1   9
ATOM      8  C1  UNL     1       2.449 101.975 101.860  0.00  0.00    +0.000 C 
ATOM      9  C2  UNL     1       1.134 101.286 101.475  0.00  0.00    +0.000 C 
ATOM     10  C3  UNL     1      -0.070 102.186 101.777  0.00  0.00    +0.000 C 
ENDBRANCH   1   9
BRANCH   3  11
ATOM     11  O1  UNL     1      -0.831  98.714  97.724  0.00  0.00    +0.000 OA
ATOM     12  H14 UNL     1      -1.747  99.050  97.449  0.00  0.00    +0.000 HD
ENDBRANCH   3  11
TORSDOF 2
ENDMDL
MODEL 6
REMARK VINA RESULT:      -3.8      1.608      2.469
REMARK  Name = .\Carvacrol.pdb
REMARK  5 active torsions:
REMARK  status: ('A' for Active; 'I' for Inactive)
REMARK    1  A    between atoms: C1_1  and  C2_2
REMARK    2  A    between atoms: C2_2  and  C3_3
REMARK    3  A    between atoms: C2_2  and  C4_4
REMARK    4  A    between atoms: C6_6  and  O1_11
REMARK    5  A    between atoms: C7_7  and  C10_10
REMARK                            x       y       z     vdW  Elec       q    Type
REMARK                         _______ _______ _______ _____ _____    ______ ____
ROOT
ATOM      1  C4  UNL     1       0.899  99.987  97.616  0.00  0.00    +0.000 A 
ATOM      2  C5  UNL     1       1.684 100.232  96.476  0.00  0.00    +0.000 A 
ATOM      3  C6  UNL     1       1.397  99.597  95.259  0.00  0.00    +0.000 A 
ATOM      4  C7  UNL     1       0.315  98.705  95.170  0.00  0.00    +0.000 A 
ATOM      5  C8  UNL     1      -0.471  98.458  96.307  0.00  0.00    +0.000 A 
ATOM      6  C9  UNL     1      -0.182  99.092  97.518  0.00  0.00    +0.000 A 
ATOM      7  C10 UNL     1       0.001  98.021  93.870  0.00  0.00    +0.000 C 
ENDROOT
BRANCH   1   9
ATOM      8  C1  UNL     1       0.702  99.878 100.122  0.00  0.00    +0.000 C 
ATOM      9  C2  UNL     1       1.224 100.682  98.925  0.00  0.00    +0.000 C 
ATOM     10  C3  UNL     1       2.729 100.948  99.052  0.00  0.00    +0.000 C 
ENDBRANCH   1   9
BRANCH   3  11
ATOM     11  O1  UNL     1       2.186  99.850  94.136  0.00  0.00    +0.000 OA
ATOM     12  H14 UNL     1       2.305 100.788  93.771  0.00  0.00    +0.000 HD
ENDBRANCH   3  11
TORSDOF 2
ENDMDL
MODEL 7
REMARK VINA RESULT:      -3.8      3.288      5.722
REMARK  Name = .\Carvacrol.pdb
REMARK  5 active torsions:
REMARK  status: ('A' for Active; 'I' for Inactive)
REMARK    1  A    between atoms: C1_1  and  C2_2
REMARK    2  A    between atoms: C2_2  and  C3_3
REMARK    3  A    between atoms: C2_2  and  C4_4
REMARK    4  A    between atoms: C6_6  and  O1_11
REMARK    5  A    between atoms: C7_7  and  C10_10
REMARK                            x       y       z     vdW  Elec       q    Type
REMARK                         _______ _______ _______ _____ _____    ______ ____
ROOT
ATOM      1  C4  UNL     1       1.680  99.855  92.874  0.00  0.00    +0.000 A 
ATOM      2  C5  UNL     1       0.554  99.058  92.606  0.00  0.00    +0.000 A 
ATOM      3  C6  UNL     1      -0.169  98.465  93.652  0.00  0.00    +0.000 A 
ATOM      4  C7  UNL     1       0.231  98.666  94.984  0.00  0.00    +0.000 A 
ATOM      5  C8  UNL     1       1.355  99.462  95.254  0.00  0.00    +0.000 A 
ATOM      6  C9  UNL     1       2.072 100.051  94.210  0.00  0.00    +0.000 A 
ATOM      7  C10 UNL     1      -0.538  98.035  96.109  0.00  0.00    +0.000 C 
ENDROOT
BRANCH   1   9
ATOM      8  C1  UNL     1       1.619 100.500  90.443  0.00  0.00    +0.000 C 
ATOM      9  C2  UNL     1       2.451 100.488  91.731  0.00  0.00    +0.000 C 
ATOM     10  C3  UNL     1       2.922 101.901  92.097  0.00  0.00    +0.000 C 
ENDBRANCH   1   9
BRANCH   3  11
ATOM     11  O1  UNL     1      -1.284  97.675  93.370  0.00  0.00    +0.000 OA
ATOM     12  H14 UNL     1      -1.967  97.949  92.673  0.00  0.00    +0.000 HD
ENDBRANCH   3  11
TORSDOF 2
ENDMDL
MODEL 8
REMARK VINA RESULT:      -3.8      2.878      6.227
REMARK  Name = .\Carvacrol.pdb
REMARK  5 active torsions:
REMARK  status: ('A' for Active; 'I' for Inactive)
REMARK    1  A    between atoms: C1_1  and  C2_2
REMARK    2  A    between atoms: C2_2  and  C3_3
REMARK    3  A    between atoms: C2_2  and  C4_4
REMARK    4  A    between atoms: C6_6  and  O1_11
REMARK    5  A    between atoms: C7_7  and  C10_10
REMARK                            x       y       z     vdW  Elec       q    Type
REMARK                         _______ _______ _______ _____ _____    ______ ____
ROOT
ATOM      1  C4  UNL     1       0.962  98.757  92.644  0.00  0.00    +0.000 A 
ATOM      2  C5  UNL     1       1.673  99.520  93.587  0.00  0.00    +0.000 A 
ATOM      3  C6  UNL     1       1.298  99.520  94.938  0.00  0.00    +0.000 A 
ATOM      4  C7  UNL     1       0.199  98.753  95.362  0.00  0.00    +0.000 A 
ATOM      5  C8  UNL     1      -0.513  97.991  94.422  0.00  0.00    +0.000 A 
ATOM      6  C9  UNL     1      -0.136  97.992  93.077  0.00  0.00    +0.000 A 
ATOM      7  C10 UNL     1      -0.209  98.748  96.807  0.00  0.00    +0.000 C 
ENDROOT
BRANCH   1   9
ATOM      8  C1  UNL     1       1.598 100.201  90.685  0.00  0.00    +0.000 C 
ATOM      9  C2  UNL     1       1.382  98.768  91.186  0.00  0.00    +0.000 C 
ATOM     10  C3  UNL     1       2.633  97.910  90.965  0.00  0.00    +0.000 C 
ENDBRANCH   1   9
BRANCH   3  11
ATOM     11  O1  UNL     1       2.014 100.283  95.861  0.00  0.00    +0.000 OA
ATOM     12  H14 UNL     1       2.119  99.988  96.826  0.00  0.00    +0.000 HD
ENDBRANCH   3  11
TORSDOF 2
ENDMDL
MODEL 9
REMARK VINA RESULT:      -3.8      1.867      4.843
REMARK  Name = .\Carvacrol.pdb
REMARK  5 active torsions:
REMARK  status: ('A' for Active; 'I' for Inactive)
REMARK    1  A    between atoms: C1_1  and  C2_2
REMARK    2  A    between atoms: C2_2  and  C3_3
REMARK    3  A    between atoms: C2_2  and  C4_4
REMARK    4  A    between atoms: C6_6  and  O1_11
REMARK    5  A    between atoms: C7_7  and  C10_10
REMARK                            x       y       z     vdW  Elec       q    Type
REMARK                         _______ _______ _______ _____ _____    ______ ____
ROOT
ATOM      1  C4  UNL     1       0.986  99.473  95.716  0.00  0.00    +0.000 A 
ATOM      2  C5  UNL     1       1.968 100.339  96.226  0.00  0.00    +0.000 A 
ATOM      3  C6  UNL     1       1.956 100.719  97.576  0.00  0.00    +0.000 A 
ATOM      4  C7  UNL     1       0.954 100.233  98.434  0.00  0.00    +0.000 A 
ATOM      5  C8  UNL     1      -0.027  99.368  97.927  0.00  0.00    +0.000 A 
ATOM      6  C9  UNL     1      -0.012  98.991  96.582  0.00  0.00    +0.000 A 
ATOM      7  C10 UNL     1       0.935 100.636  99.881  0.00  0.00    +0.000 C 
ENDROOT
BRANCH   1   9
ATOM      8  C1  UNL     1      -0.297  98.391  93.842  0.00  0.00    +0.000 C 
ATOM      9  C2  UNL     1       1.014  99.072  94.253  0.00  0.00    +0.000 C 
ATOM     10  C3  UNL     1       1.315 100.277  93.354  0.00  0.00    +0.000 C 
ENDBRANCH   1   9
BRANCH   3  11
ATOM     11  O1  UNL     1       2.937 101.581  98.068  0.00  0.00    +0.000 OA
ATOM     12  H14 UNL     1       3.922 101.420  97.892  0.00  0.00    +0.000 HD
ENDBRANCH   3  11
TORSDOF 2
ENDMDL
