MODEL 1
REMARK VINA RESULT:      -3.7      0.000      0.000
REMARK  Name = .\Carvone.pdb
REMARK  3 active torsions:
REMARK  status: ('A' for Active; 'I' for Inactive)
REMARK    1  A    between atoms: C1_1  and  C2_2
REMARK    2  A    between atoms: C7_8  and  C8_9
REMARK    3  A    between atoms: C7_8  and  C9_10
REMARK                            x       y       z     vdW  Elec       q    Type
REMARK                         _______ _______ _______ _____ _____    ______ ____
ROOT
ATOM      1  C1  UNL     1       9.646  55.609  -1.211  0.00  0.00    +0.000 C 
ATOM      2  C2  UNL     1       9.902  57.094  -1.123  0.00  0.00    +0.000 C 
ATOM      3  C3  UNL     1      10.069  57.618   0.102  0.00  0.00    +0.000 C 
ATOM      4  C4  UNL     1      10.322  59.048   0.288  0.00  0.00    +0.000 C 
ATOM      5  O1  UNL     1      10.475  59.518   1.446  0.00  0.00    +0.000 OA
ATOM      6  C5  UNL     1      10.394  59.927  -0.875  0.00  0.00    +0.000 C 
ATOM      7  C6  UNL     1      10.233  59.437  -2.104  0.00  0.00    +0.000 C 
ATOM      8  C7  UNL     1       9.966  57.964  -2.393  0.00  0.00    +0.000 C 
ATOM      9  C8  UNL     1       8.622  57.880  -3.144  0.00  0.00    +0.000 C 
ATOM     10  C9  UNL     1      11.104  57.462  -3.304  0.00  0.00    +0.000 C 
ENDROOT
TORSDOF 0
ENDMDL
MODEL 2
REMARK VINA RESULT:      -3.7      0.867      2.524
REMARK  Name = .\Carvone.pdb
REMARK  3 active torsions:
REMARK  status: ('A' for Active; 'I' for Inactive)
REMARK    1  A    between atoms: C1_1  and  C2_2
REMARK    2  A    between atoms: C7_8  and  C8_9
REMARK    3  A    between atoms: C7_8  and  C9_10
REMARK                            x       y       z     vdW  Elec       q    Type
REMARK                         _______ _______ _______ _____ _____    ______ ____
ROOT
ATOM      1  C1  UNL     1      10.502  59.583  -3.159  0.00  0.00    +0.000 C 
ATOM      2  C2  UNL     1      10.392  58.860  -1.839  0.00  0.00    +0.000 C 
ATOM      3  C3  UNL     1      10.502  59.597  -0.722  0.00  0.00    +0.000 C 
ATOM      4  C4  UNL     1      10.409  58.984   0.605  0.00  0.00    +0.000 C 
ATOM      5  O1  UNL     1      10.514  59.696   1.639  0.00  0.00    +0.000 OA
ATOM      6  C5  UNL     1      10.194  57.545   0.724  0.00  0.00    +0.000 C 
ATOM      7  C6  UNL     1      10.081  56.787  -0.366  0.00  0.00    +0.000 C 
ATOM      8  C7  UNL     1      10.164  57.336  -1.786  0.00  0.00    +0.000 C 
ATOM      9  C8  UNL     1      11.333  56.616  -2.488  0.00  0.00    +0.000 C 
ATOM     10  C9  UNL     1       8.839  56.989  -2.491  0.00  0.00    +0.000 C 
ENDROOT
TORSDOF 0
ENDMDL
MODEL 3
REMARK VINA RESULT:      -3.3      1.716      2.248
REMARK  Name = .\Carvone.pdb
REMARK  3 active torsions:
REMARK  status: ('A' for Active; 'I' for Inactive)
REMARK    1  A    between atoms: C1_1  and  C2_2
REMARK    2  A    between atoms: C7_8  and  C8_9
REMARK    3  A    between atoms: C7_8  and  C9_10
REMARK                            x       y       z     vdW  Elec       q    Type
REMARK                         _______ _______ _______ _____ _____    ______ ____
ROOT
ATOM      1  C1  UNL     1       9.790  56.044  -0.084  0.00  0.00    +0.000 C 
ATOM      2  C2  UNL     1       9.724  56.978  -1.268  0.00  0.00    +0.000 C 
ATOM      3  C3  UNL     1      10.127  58.244  -1.076  0.00  0.00    +0.000 C 
ATOM      4  C4  UNL     1      10.100  59.224  -2.163  0.00  0.00    +0.000 C 
ATOM      5  O1  UNL     1      10.484  60.406  -1.960  0.00  0.00    +0.000 OA
ATOM      6  C5  UNL     1       9.626  58.824  -3.485  0.00  0.00    +0.000 C 
ATOM      7  C6  UNL     1       9.219  57.574  -3.707  0.00  0.00    +0.000 C 
ATOM      8  C7  UNL     1       9.212  56.489  -2.637  0.00  0.00    +0.000 C 
ATOM      9  C8  UNL     1       7.759  55.993  -2.496  0.00  0.00    +0.000 C 
ATOM     10  C9  UNL     1      10.108  55.342  -3.142  0.00  0.00    +0.000 C 
ENDROOT
TORSDOF 0
ENDMDL
MODEL 4
REMARK VINA RESULT:      -3.3      2.245      3.768
REMARK  Name = .\Carvone.pdb
REMARK  3 active torsions:
REMARK  status: ('A' for Active; 'I' for Inactive)
REMARK    1  A    between atoms: C1_1  and  C2_2
REMARK    2  A    between atoms: C7_8  and  C8_9
REMARK    3  A    between atoms: C7_8  and  C9_10
REMARK                            x       y       z     vdW  Elec       q    Type
REMARK                         _______ _______ _______ _____ _____    ______ ____
ROOT
ATOM      1  C1  UNL     1      10.258  59.960  -2.433  0.00  0.00    +0.000 C 
ATOM      2  C2  UNL     1       9.909  58.594  -1.894  0.00  0.00    +0.000 C 
ATOM      3  C3  UNL     1       8.973  57.893  -2.552  0.00  0.00    +0.000 C 
ATOM      4  C4  UNL     1       8.568  56.559  -2.105  0.00  0.00    +0.000 C 
ATOM      5  O1  UNL     1       7.688  55.920  -2.739  0.00  0.00    +0.000 OA
ATOM      6  C5  UNL     1       9.190  55.973  -0.921  0.00  0.00    +0.000 C 
ATOM      7  C6  UNL     1      10.123  56.644  -0.246  0.00  0.00    +0.000 C 
ATOM      8  C7  UNL     1      10.606  58.036  -0.637  0.00  0.00    +0.000 C 
ATOM      9  C8  UNL     1      10.334  58.969   0.560  0.00  0.00    +0.000 C 
ATOM     10  C9  UNL     1      12.123  57.941  -0.889  0.00  0.00    +0.000 C 
ENDROOT
TORSDOF 0
ENDMDL
MODEL 5
REMARK VINA RESULT:      -3.2      2.102      3.216
REMARK  Name = .\Carvone.pdb
REMARK  3 active torsions:
REMARK  status: ('A' for Active; 'I' for Inactive)
REMARK    1  A    between atoms: C1_1  and  C2_2
REMARK    2  A    between atoms: C7_8  and  C8_9
REMARK    3  A    between atoms: C7_8  and  C9_10
REMARK                            x       y       z     vdW  Elec       q    Type
REMARK                         _______ _______ _______ _____ _____    ______ ____
ROOT
ATOM      1  C1  UNL     1      10.343  56.234   0.278  0.00  0.00    +0.000 C 
ATOM      2  C2  UNL     1      10.195  57.402  -0.665  0.00  0.00    +0.000 C 
ATOM      3  C3  UNL     1       9.360  57.253  -1.706  0.00  0.00    +0.000 C 
ATOM      4  C4  UNL     1       9.152  58.330  -2.674  0.00  0.00    +0.000 C 
ATOM      5  O1  UNL     1       8.363  58.167  -3.642  0.00  0.00    +0.000 OA
ATOM      6  C5  UNL     1       9.863  59.595  -2.513  0.00  0.00    +0.000 C 
ATOM      7  C6  UNL     1      10.699  59.775  -1.490  0.00  0.00    +0.000 C 
ATOM      8  C7  UNL     1      10.977  58.711  -0.435  0.00  0.00    +0.000 C 
ATOM      9  C8  UNL     1      12.491  58.419  -0.467  0.00  0.00    +0.000 C 
ATOM     10  C9  UNL     1      10.590  59.308   0.932  0.00  0.00    +0.000 C 
ENDROOT
TORSDOF 0
ENDMDL
MODEL 6
REMARK VINA RESULT:      -3.2      1.452      1.835
REMARK  Name = .\Carvone.pdb
REMARK  3 active torsions:
REMARK  status: ('A' for Active; 'I' for Inactive)
REMARK    1  A    between atoms: C1_1  and  C2_2
REMARK    2  A    between atoms: C7_8  and  C8_9
REMARK    3  A    between atoms: C7_8  and  C9_10
REMARK                            x       y       z     vdW  Elec       q    Type
REMARK                         _______ _______ _______ _____ _____    ______ ____
ROOT
ATOM      1  C1  UNL     1      10.563  56.293  -2.052  0.00  0.00    +0.000 C 
ATOM      2  C2  UNL     1      10.692  57.359  -0.991  0.00  0.00    +0.000 C 
ATOM      3  C3  UNL     1      10.401  57.010   0.272  0.00  0.00    +0.000 C 
ATOM      4  C4  UNL     1      10.497  57.974   1.369  0.00  0.00    +0.000 C 
ATOM      5  O1  UNL     1      10.219  57.623   2.546  0.00  0.00    +0.000 OA
ATOM      6  C5  UNL     1      10.915  59.345   1.092  0.00  0.00    +0.000 C 
ATOM      7  C6  UNL     1      11.212  59.723  -0.151  0.00  0.00    +0.000 C 
ATOM      8  C7  UNL     1      11.140  58.789  -1.354  0.00  0.00    +0.000 C 
ATOM      9  C8  UNL     1      10.141  59.404  -2.353  0.00  0.00    +0.000 C 
ATOM     10  C9  UNL     1      12.546  58.744  -1.983  0.00  0.00    +0.000 C 
ENDROOT
TORSDOF 0
ENDMDL
MODEL 7
REMARK VINA RESULT:      -3.1      1.187      1.278
REMARK  Name = .\Carvone.pdb
REMARK  3 active torsions:
REMARK  status: ('A' for Active; 'I' for Inactive)
REMARK    1  A    between atoms: C1_1  and  C2_2
REMARK    2  A    between atoms: C7_8  and  C8_9
REMARK    3  A    between atoms: C7_8  and  C9_10
REMARK                            x       y       z     vdW  Elec       q    Type
REMARK                         _______ _______ _______ _____ _____    ______ ____
ROOT
ATOM      1  C1  UNL     1      11.595  55.642  -1.256  0.00  0.00    +0.000 C 
ATOM      2  C2  UNL     1      11.180  57.091  -1.344  0.00  0.00    +0.000 C 
ATOM      3  C3  UNL     1      10.738  57.674  -0.219  0.00  0.00    +0.000 C 
ATOM      4  C4  UNL     1      10.313  59.075  -0.206  0.00  0.00    +0.000 C 
ATOM      5  O1  UNL     1       9.902  59.602   0.862  0.00  0.00    +0.000 OA
ATOM      6  C5  UNL     1      10.368  59.859  -1.436  0.00  0.00    +0.000 C 
ATOM      7  C6  UNL     1      10.803  59.309  -2.569  0.00  0.00    +0.000 C 
ATOM      8  C7  UNL     1      11.264  57.860  -2.677  0.00  0.00    +0.000 C 
ATOM      9  C8  UNL     1      10.369  57.171  -3.727  0.00  0.00    +0.000 C 
ATOM     10  C9  UNL     1      12.724  57.879  -3.169  0.00  0.00    +0.000 C 
ENDROOT
TORSDOF 0
ENDMDL
MODEL 8
REMARK VINA RESULT:      -3.1      2.209      3.248
REMARK  Name = .\Carvone.pdb
REMARK  3 active torsions:
REMARK  status: ('A' for Active; 'I' for Inactive)
REMARK    1  A    between atoms: C1_1  and  C2_2
REMARK    2  A    between atoms: C7_8  and  C8_9
REMARK    3  A    between atoms: C7_8  and  C9_10
REMARK                            x       y       z     vdW  Elec       q    Type
REMARK                         _______ _______ _______ _____ _____    ______ ____
ROOT
ATOM      1  C1  UNL     1      11.859  58.128  -0.806  0.00  0.00    +0.000 C 
ATOM      2  C2  UNL     1      10.616  57.900  -1.631  0.00  0.00    +0.000 C 
ATOM      3  C3  UNL     1       9.893  56.801  -1.364  0.00  0.00    +0.000 C 
ATOM      4  C4  UNL     1       8.672  56.495  -2.111  0.00  0.00    +0.000 C 
ATOM      5  O1  UNL     1       8.009  55.459  -1.843  0.00  0.00    +0.000 OA
ATOM      6  C5  UNL     1       8.226  57.398  -3.169  0.00  0.00    +0.000 C 
ATOM      7  C6  UNL     1       8.922  58.497  -3.457  0.00  0.00    +0.000 C 
ATOM      8  C7  UNL     1      10.203  58.895  -2.733  0.00  0.00    +0.000 C 
ATOM      9  C8  UNL     1      11.319  58.984  -3.792  0.00  0.00    +0.000 C 
ATOM     10  C9  UNL     1       9.965  60.285  -2.110  0.00  0.00    +0.000 C 
ENDROOT
TORSDOF 0
ENDMDL
MODEL 9
REMARK VINA RESULT:      -2.9      1.974      3.166
REMARK  Name = .\Carvone.pdb
REMARK  3 active torsions:
REMARK  status: ('A' for Active; 'I' for Inactive)
REMARK    1  A    between atoms: C1_1  and  C2_2
REMARK    2  A    between atoms: C7_8  and  C8_9
REMARK    3  A    between atoms: C7_8  and  C9_10
REMARK                            x       y       z     vdW  Elec       q    Type
REMARK                         _______ _______ _______ _____ _____    ______ ____
ROOT
ATOM      1  C1  UNL     1       9.497  56.018  -4.826  0.00  0.00    +0.000 C 
ATOM      2  C2  UNL     1       9.720  56.886  -3.612  0.00  0.00    +0.000 C 
ATOM      3  C3  UNL     1      10.118  58.150  -3.824  0.00  0.00    +0.000 C 
ATOM      4  C4  UNL     1      10.359  59.068  -2.709  0.00  0.00    +0.000 C 
ATOM      5  O1  UNL     1      10.732  60.250  -2.932  0.00  0.00    +0.000 OA
ATOM      6  C5  UNL     1      10.167  58.607  -1.338  0.00  0.00    +0.000 C 
ATOM      7  C6  UNL     1       9.772  57.357  -1.094  0.00  0.00    +0.000 C 
ATOM      8  C7  UNL     1       9.497  56.334  -2.190  0.00  0.00    +0.000 C 
ATOM      9  C8  UNL     1      10.440  55.139  -1.948  0.00  0.00    +0.000 C 
ATOM     10  C9  UNL     1       8.032  55.881  -2.037  0.00  0.00    +0.000 C 
ENDROOT
TORSDOF 0
ENDMDL
