MODEL 1
REMARK VINA RESULT:      -3.9      0.000      0.000
REMARK  Name = .\Carvone.pdb
REMARK  3 active torsions:
REMARK  status: ('A' for Active; 'I' for Inactive)
REMARK    1  A    between atoms: C1_1  and  C2_2
REMARK    2  A    between atoms: C7_8  and  C8_9
REMARK    3  A    between atoms: C7_8  and  C9_10
REMARK                            x       y       z     vdW  Elec       q    Type
REMARK                         _______ _______ _______ _____ _____    ______ ____
ROOT
ATOM      1  C1  UNL     1      -4.268  84.871  61.301  0.00  0.00    +0.000 C 
ATOM      2  C2  UNL     1      -2.815  85.193  61.551  0.00  0.00    +0.000 C 
ATOM      3  C3  UNL     1      -1.926  84.780  60.634  0.00  0.00    +0.000 C 
ATOM      4  C4  UNL     1      -0.494  85.046  60.789  0.00  0.00    +0.000 C 
ATOM      5  O1  UNL     1       0.321  84.649  59.916  0.00  0.00    +0.000 OA
ATOM      6  C5  UNL     1      -0.017  85.773  61.962  0.00  0.00    +0.000 C 
ATOM      7  C6  UNL     1      -0.874  86.197  62.890  0.00  0.00    +0.000 C 
ATOM      8  C7  UNL     1      -2.379  85.966  62.812  0.00  0.00    +0.000 C 
ATOM      9  C8  UNL     1      -2.787  85.172  64.069  0.00  0.00    +0.000 C 
ATOM     10  C9  UNL     1      -3.056  87.350  62.828  0.00  0.00    +0.000 C 
ENDROOT
TORSDOF 0
ENDMDL
MODEL 2
REMARK VINA RESULT:      -3.7      2.029      3.298
REMARK  Name = .\Carvone.pdb
REMARK  3 active torsions:
REMARK  status: ('A' for Active; 'I' for Inactive)
REMARK    1  A    between atoms: C1_1  and  C2_2
REMARK    2  A    between atoms: C7_8  and  C8_9
REMARK    3  A    between atoms: C7_8  and  C9_10
REMARK                            x       y       z     vdW  Elec       q    Type
REMARK                         _______ _______ _______ _____ _____    ______ ____
ROOT
ATOM      1  C1  UNL     1      -0.211  84.639  60.456  0.00  0.00    +0.000 C 
ATOM      2  C2  UNL     1      -1.402  85.319  61.085  0.00  0.00    +0.000 C 
ATOM      3  C3  UNL     1      -2.620  84.864  60.749  0.00  0.00    +0.000 C 
ATOM      4  C4  UNL     1      -3.835  85.459  61.308  0.00  0.00    +0.000 C 
ATOM      5  O1  UNL     1      -4.966  85.015  60.979  0.00  0.00    +0.000 OA
ATOM      6  C5  UNL     1      -3.729  86.571  62.249  0.00  0.00    +0.000 C 
ATOM      7  C6  UNL     1      -2.535  87.045  62.602  0.00  0.00    +0.000 C 
ATOM      8  C7  UNL     1      -1.218  86.488  62.072  0.00  0.00    +0.000 C 
ATOM      9  C8  UNL     1      -0.482  87.646  61.369  0.00  0.00    +0.000 C 
ATOM     10  C9  UNL     1      -0.399  86.012  63.288  0.00  0.00    +0.000 C 
ENDROOT
TORSDOF 0
ENDMDL
MODEL 3
REMARK VINA RESULT:      -3.7      2.177      3.868
REMARK  Name = .\Carvone.pdb
REMARK  3 active torsions:
REMARK  status: ('A' for Active; 'I' for Inactive)
REMARK    1  A    between atoms: C1_1  and  C2_2
REMARK    2  A    between atoms: C7_8  and  C8_9
REMARK    3  A    between atoms: C7_8  and  C9_10
REMARK                            x       y       z     vdW  Elec       q    Type
REMARK                         _______ _______ _______ _____ _____    ______ ____
ROOT
ATOM      1  C1  UNL     1       0.252  88.238  61.603  0.00  0.00    +0.000 C 
ATOM      2  C2  UNL     1      -0.458  86.960  61.228  0.00  0.00    +0.000 C 
ATOM      3  C3  UNL     1      -1.798  86.954  61.306  0.00  0.00    +0.000 C 
ATOM      4  C4  UNL     1      -2.574  85.762  60.962  0.00  0.00    +0.000 C 
ATOM      5  O1  UNL     1      -3.831  85.780  61.042  0.00  0.00    +0.000 OA
ATOM      6  C5  UNL     1      -1.884  84.551  60.526  0.00  0.00    +0.000 C 
ATOM      7  C6  UNL     1      -0.554  84.525  60.438  0.00  0.00    +0.000 C 
ATOM      8  C7  UNL     1       0.334  85.717  60.775  0.00  0.00    +0.000 C 
ATOM      9  C8  UNL     1       1.287  85.275  61.903  0.00  0.00    +0.000 C 
ATOM     10  C9  UNL     1       1.145  86.056  59.510  0.00  0.00    +0.000 C 
ENDROOT
TORSDOF 0
ENDMDL
MODEL 4
REMARK VINA RESULT:      -3.7      2.740      4.274
REMARK  Name = .\Carvone.pdb
REMARK  3 active torsions:
REMARK  status: ('A' for Active; 'I' for Inactive)
REMARK    1  A    between atoms: C1_1  and  C2_2
REMARK    2  A    between atoms: C7_8  and  C8_9
REMARK    3  A    between atoms: C7_8  and  C9_10
REMARK                            x       y       z     vdW  Elec       q    Type
REMARK                         _______ _______ _______ _____ _____    ______ ____
ROOT
ATOM      1  C1  UNL     1      -2.751  88.289  62.761  0.00  0.00    +0.000 C 
ATOM      2  C2  UNL     1      -3.633  87.202  62.196  0.00  0.00    +0.000 C 
ATOM      3  C3  UNL     1      -4.886  87.542  61.853  0.00  0.00    +0.000 C 
ATOM      4  C4  UNL     1      -5.815  86.557  61.297  0.00  0.00    +0.000 C 
ATOM      5  O1  UNL     1      -6.985  86.898  60.982  0.00  0.00    +0.000 OA
ATOM      6  C5  UNL     1      -5.378  85.176  61.110  0.00  0.00    +0.000 C 
ATOM      7  C6  UNL     1      -4.141  84.808  61.440  0.00  0.00    +0.000 C 
ATOM      8  C7  UNL     1      -3.107  85.764  62.025  0.00  0.00    +0.000 C 
ATOM      9  C8  UNL     1      -2.688  85.201  63.398  0.00  0.00    +0.000 C 
ATOM     10  C9  UNL     1      -1.896  85.768  61.072  0.00  0.00    +0.000 C 
ENDROOT
TORSDOF 0
ENDMDL
MODEL 5
REMARK VINA RESULT:      -3.6      0.513      2.591
REMARK  Name = .\Carvone.pdb
REMARK  3 active torsions:
REMARK  status: ('A' for Active; 'I' for Inactive)
REMARK    1  A    between atoms: C1_1  and  C2_2
REMARK    2  A    between atoms: C7_8  and  C8_9
REMARK    3  A    between atoms: C7_8  and  C9_10
REMARK                            x       y       z     vdW  Elec       q    Type
REMARK                         _______ _______ _______ _____ _____    ______ ____
ROOT
ATOM      1  C1  UNL     1      -0.111  86.651  64.139  0.00  0.00    +0.000 C 
ATOM      2  C2  UNL     1      -0.772  86.024  62.935  0.00  0.00    +0.000 C 
ATOM      3  C3  UNL     1       0.030  85.537  61.976  0.00  0.00    +0.000 C 
ATOM      4  C4  UNL     1      -0.518  84.911  60.771  0.00  0.00    +0.000 C 
ATOM      5  O1  UNL     1       0.254  84.461  59.884  0.00  0.00    +0.000 OA
ATOM      6  C5  UNL     1      -1.965  84.811  60.603  0.00  0.00    +0.000 C 
ATOM      7  C6  UNL     1      -2.788  85.285  61.538  0.00  0.00    +0.000 C 
ATOM      8  C7  UNL     1      -2.308  85.951  62.822  0.00  0.00    +0.000 C 
ATOM      9  C8  UNL     1      -2.894  87.377  62.845  0.00  0.00    +0.000 C 
ATOM     10  C9  UNL     1      -2.873  85.136  64.001  0.00  0.00    +0.000 C 
ENDROOT
TORSDOF 0
ENDMDL
MODEL 6
REMARK VINA RESULT:      -3.5      2.395      3.803
REMARK  Name = .\Carvone.pdb
REMARK  3 active torsions:
REMARK  status: ('A' for Active; 'I' for Inactive)
REMARK    1  A    between atoms: C1_1  and  C2_2
REMARK    2  A    between atoms: C7_8  and  C8_9
REMARK    3  A    between atoms: C7_8  and  C9_10
REMARK                            x       y       z     vdW  Elec       q    Type
REMARK                         _______ _______ _______ _____ _____    ______ ____
ROOT
ATOM      1  C1  UNL     1       0.208  87.890  60.346  0.00  0.00    +0.000 C 
ATOM      2  C2  UNL     1      -0.998  87.203  60.936  0.00  0.00    +0.000 C 
ATOM      3  C3  UNL     1      -2.169  87.857  60.881  0.00  0.00    +0.000 C 
ATOM      4  C4  UNL     1      -3.394  87.271  61.428  0.00  0.00    +0.000 C 
ATOM      5  O1  UNL     1      -4.481  87.904  61.364  0.00  0.00    +0.000 OA
ATOM      6  C5  UNL     1      -3.350  85.950  62.046  0.00  0.00    +0.000 C 
ATOM      7  C6  UNL     1      -2.203  85.274  62.116  0.00  0.00    +0.000 C 
ATOM      8  C7  UNL     1      -0.880  85.805  61.575  0.00  0.00    +0.000 C 
ATOM      9  C8  UNL     1       0.109  85.859  62.756  0.00  0.00    +0.000 C 
ATOM     10  C9  UNL     1      -0.379  84.798  60.521  0.00  0.00    +0.000 C 
ENDROOT
TORSDOF 0
ENDMDL
MODEL 7
REMARK VINA RESULT:      -3.5      1.403      1.787
REMARK  Name = .\Carvone.pdb
REMARK  3 active torsions:
REMARK  status: ('A' for Active; 'I' for Inactive)
REMARK    1  A    between atoms: C1_1  and  C2_2
REMARK    2  A    between atoms: C7_8  and  C8_9
REMARK    3  A    between atoms: C7_8  and  C9_10
REMARK                            x       y       z     vdW  Elec       q    Type
REMARK                         _______ _______ _______ _____ _____    ______ ____
ROOT
ATOM      1  C1  UNL     1      -2.191  84.868  60.499  0.00  0.00    +0.000 C 
ATOM      2  C2  UNL     1      -1.188  85.291  61.544  0.00  0.00    +0.000 C 
ATOM      3  C3  UNL     1       0.092  84.935  61.350  0.00  0.00    +0.000 C 
ATOM      4  C4  UNL     1       1.136  85.299  62.309  0.00  0.00    +0.000 C 
ATOM      5  O1  UNL     1       2.330  84.954  62.106  0.00  0.00    +0.000 OA
ATOM      6  C5  UNL     1       0.787  86.065  63.502  0.00  0.00    +0.000 C 
ATOM      7  C6  UNL     1      -0.474  86.434  63.723  0.00  0.00    +0.000 C 
ATOM      8  C7  UNL     1      -1.626  86.100  62.782  0.00  0.00    +0.000 C 
ATOM      9  C8  UNL     1      -2.657  85.287  63.589  0.00  0.00    +0.000 C 
ATOM     10  C9  UNL     1      -2.251  87.434  62.330  0.00  0.00    +0.000 C 
ENDROOT
TORSDOF 0
ENDMDL
MODEL 8
REMARK VINA RESULT:      -3.5      2.250      3.362
REMARK  Name = .\Carvone.pdb
REMARK  3 active torsions:
REMARK  status: ('A' for Active; 'I' for Inactive)
REMARK    1  A    between atoms: C1_1  and  C2_2
REMARK    2  A    between atoms: C7_8  and  C8_9
REMARK    3  A    between atoms: C7_8  and  C9_10
REMARK                            x       y       z     vdW  Elec       q    Type
REMARK                         _______ _______ _______ _____ _____    ______ ____
ROOT
ATOM      1  C1  UNL     1      -0.914  85.082  60.937  0.00  0.00    +0.000 C 
ATOM      2  C2  UNL     1      -1.925  86.159  61.246  0.00  0.00    +0.000 C 
ATOM      3  C3  UNL     1      -1.661  87.398  60.801  0.00  0.00    +0.000 C 
ATOM      4  C4  UNL     1      -2.581  88.508  61.052  0.00  0.00    +0.000 C 
ATOM      5  O1  UNL     1      -2.313  89.661  60.624  0.00  0.00    +0.000 OA
ATOM      6  C5  UNL     1      -3.813  88.272  61.800  0.00  0.00    +0.000 C 
ATOM      7  C6  UNL     1      -4.104  87.053  62.255  0.00  0.00    +0.000 C 
ATOM      8  C7  UNL     1      -3.206  85.840  62.042  0.00  0.00    +0.000 C 
ATOM      9  C8  UNL     1      -2.826  85.301  63.436  0.00  0.00    +0.000 C 
ATOM     10  C9  UNL     1      -4.034  84.784  61.283  0.00  0.00    +0.000 C 
ENDROOT
TORSDOF 0
ENDMDL
MODEL 9
REMARK VINA RESULT:      -3.5      2.174      3.960
REMARK  Name = .\Carvone.pdb
REMARK  3 active torsions:
REMARK  status: ('A' for Active; 'I' for Inactive)
REMARK    1  A    between atoms: C1_1  and  C2_2
REMARK    2  A    between atoms: C7_8  and  C8_9
REMARK    3  A    between atoms: C7_8  and  C9_10
REMARK                            x       y       z     vdW  Elec       q    Type
REMARK                         _______ _______ _______ _____ _____    ______ ____
ROOT
ATOM      1  C1  UNL     1       1.426  86.123  62.885  0.00  0.00    +0.000 C 
ATOM      2  C2  UNL     1      -0.059  85.917  62.708  0.00  0.00    +0.000 C 
ATOM      3  C3  UNL     1      -0.805  85.828  63.820  0.00  0.00    +0.000 C 
ATOM      4  C4  UNL     1      -2.253  85.629  63.750  0.00  0.00    +0.000 C 
ATOM      5  O1  UNL     1      -2.933  85.548  64.807  0.00  0.00    +0.000 OA
ATOM      6  C5  UNL     1      -2.907  85.525  62.449  0.00  0.00    +0.000 C 
ATOM      7  C6  UNL     1      -2.194  85.610  61.326  0.00  0.00    +0.000 C 
ATOM      8  C7  UNL     1      -0.683  85.816  61.302  0.00  0.00    +0.000 C 
ATOM      9  C8  UNL     1      -0.069  84.619  60.551  0.00  0.00    +0.000 C 
ATOM     10  C9  UNL     1      -0.410  87.117  60.522  0.00  0.00    +0.000 C 
ENDROOT
TORSDOF 0
ENDMDL
