MODEL 1
REMARK VINA RESULT:      -4.3      0.000      0.000
REMARK  Name = .\Carvone.pdb
REMARK  3 active torsions:
REMARK  status: ('A' for Active; 'I' for Inactive)
REMARK    1  A    between atoms: C1_1  and  C2_2
REMARK    2  A    between atoms: C7_8  and  C8_9
REMARK    3  A    between atoms: C7_8  and  C9_10
REMARK                            x       y       z     vdW  Elec       q    Type
REMARK                         _______ _______ _______ _____ _____    ______ ____
ROOT
ATOM      1  C1  UNL     1     -13.382  30.265  -0.438  0.00  0.00    +0.000 C 
ATOM      2  C2  UNL     1     -12.219  31.171  -0.762  0.00  0.00    +0.000 C 
ATOM      3  C3  UNL     1     -11.542  31.697   0.270  0.00  0.00    +0.000 C 
ATOM      4  C4  UNL     1     -10.399  32.587   0.056  0.00  0.00    +0.000 C 
ATOM      5  O1  UNL     1      -9.779  33.069   1.040  0.00  0.00    +0.000 OA
ATOM      6  C5  UNL     1      -9.983  32.914  -1.305  0.00  0.00    +0.000 C 
ATOM      7  C6  UNL     1     -10.634  32.407  -2.351  0.00  0.00    +0.000 C 
ATOM      8  C7  UNL     1     -11.833  31.473  -2.224  0.00  0.00    +0.000 C 
ATOM      9  C8  UNL     1     -13.019  32.149  -2.940  0.00  0.00    +0.000 C 
ATOM     10  C9  UNL     1     -11.469  30.160  -2.943  0.00  0.00    +0.000 C 
ENDROOT
TORSDOF 0
ENDMDL
MODEL 2
REMARK VINA RESULT:      -3.5      3.903      5.614
REMARK  Name = .\Carvone.pdb
REMARK  3 active torsions:
REMARK  status: ('A' for Active; 'I' for Inactive)
REMARK    1  A    between atoms: C1_1  and  C2_2
REMARK    2  A    between atoms: C7_8  and  C8_9
REMARK    3  A    between atoms: C7_8  and  C9_10
REMARK                            x       y       z     vdW  Elec       q    Type
REMARK                         _______ _______ _______ _____ _____    ______ ____
ROOT
ATOM      1  C1  UNL     1     -13.731  29.261   1.586  0.00  0.00    +0.000 C 
ATOM      2  C2  UNL     1     -12.758  29.823   2.594  0.00  0.00    +0.000 C 
ATOM      3  C3  UNL     1     -11.805  30.649   2.135  0.00  0.00    +0.000 C 
ATOM      4  C4  UNL     1     -10.816  31.244   3.036  0.00  0.00    +0.000 C 
ATOM      5  O1  UNL     1      -9.931  32.016   2.583  0.00  0.00    +0.000 OA
ATOM      6  C5  UNL     1     -10.862  30.938   4.463  0.00  0.00    +0.000 C 
ATOM      7  C6  UNL     1     -11.797  30.122   4.950  0.00  0.00    +0.000 C 
ATOM      8  C7  UNL     1     -12.865  29.458   4.088  0.00  0.00    +0.000 C 
ATOM      9  C8  UNL     1     -12.708  27.934   4.258  0.00  0.00    +0.000 C 
ATOM     10  C9  UNL     1     -14.236  29.905   4.631  0.00  0.00    +0.000 C 
ENDROOT
TORSDOF 0
ENDMDL
MODEL 3
REMARK VINA RESULT:      -3.4      4.497      6.024
REMARK  Name = .\Carvone.pdb
REMARK  3 active torsions:
REMARK  status: ('A' for Active; 'I' for Inactive)
REMARK    1  A    between atoms: C1_1  and  C2_2
REMARK    2  A    between atoms: C7_8  and  C8_9
REMARK    3  A    between atoms: C7_8  and  C9_10
REMARK                            x       y       z     vdW  Elec       q    Type
REMARK                         _______ _______ _______ _____ _____    ______ ____
ROOT
ATOM      1  C1  UNL     1     -11.409  29.628   6.566  0.00  0.00    +0.000 C 
ATOM      2  C2  UNL     1     -11.606  29.945   5.104  0.00  0.00    +0.000 C 
ATOM      3  C3  UNL     1     -10.720  30.773   4.529  0.00  0.00    +0.000 C 
ATOM      4  C4  UNL     1     -10.828  31.140   3.116  0.00  0.00    +0.000 C 
ATOM      5  O1  UNL     1      -9.985  31.918   2.597  0.00  0.00    +0.000 OA
ATOM      6  C5  UNL     1     -11.919  30.599   2.310  0.00  0.00    +0.000 C 
ATOM      7  C6  UNL     1     -12.815  29.774   2.852  0.00  0.00    +0.000 C 
ATOM      8  C7  UNL     1     -12.781  29.338   4.312  0.00  0.00    +0.000 C 
ATOM      9  C8  UNL     1     -14.114  29.776   4.951  0.00  0.00    +0.000 C 
ATOM     10  C9  UNL     1     -12.674  27.801   4.329  0.00  0.00    +0.000 C 
ENDROOT
TORSDOF 0
ENDMDL
MODEL 4
REMARK VINA RESULT:      -3.2      7.025      8.275
REMARK  Name = .\Carvone.pdb
REMARK  3 active torsions:
REMARK  status: ('A' for Active; 'I' for Inactive)
REMARK    1  A    between atoms: C1_1  and  C2_2
REMARK    2  A    between atoms: C7_8  and  C8_9
REMARK    3  A    between atoms: C7_8  and  C9_10
REMARK                            x       y       z     vdW  Elec       q    Type
REMARK                         _______ _______ _______ _____ _____    ______ ____
ROOT
ATOM      1  C1  UNL     1     -11.279  29.220   7.382  0.00  0.00    +0.000 C 
ATOM      2  C2  UNL     1     -10.030  30.001   7.056  0.00  0.00    +0.000 C 
ATOM      3  C3  UNL     1      -9.548  30.817   8.006  0.00  0.00    +0.000 C 
ATOM      4  C4  UNL     1      -8.342  31.616   7.783  0.00  0.00    +0.000 C 
ATOM      5  O1  UNL     1      -7.908  32.375   8.690  0.00  0.00    +0.000 OA
ATOM      6  C5  UNL     1      -7.643  31.529   6.504  0.00  0.00    +0.000 C 
ATOM      7  C6  UNL     1      -8.096  30.727   5.540  0.00  0.00    +0.000 C 
ATOM      8  C7  UNL     1      -9.342  29.860   5.683  0.00  0.00    +0.000 C 
ATOM      9  C8  UNL     1     -10.322  30.281   4.571  0.00  0.00    +0.000 C 
ATOM     10  C9  UNL     1      -8.909  28.397   5.472  0.00  0.00    +0.000 C 
ENDROOT
TORSDOF 0
ENDMDL
MODEL 5
REMARK VINA RESULT:      -3.2      2.402      3.438
REMARK  Name = .\Carvone.pdb
REMARK  3 active torsions:
REMARK  status: ('A' for Active; 'I' for Inactive)
REMARK    1  A    between atoms: C1_1  and  C2_2
REMARK    2  A    between atoms: C7_8  and  C8_9
REMARK    3  A    between atoms: C7_8  and  C9_10
REMARK                            x       y       z     vdW  Elec       q    Type
REMARK                         _______ _______ _______ _____ _____    ______ ____
ROOT
ATOM      1  C1  UNL     1     -12.229  31.115   0.219  0.00  0.00    +0.000 C 
ATOM      2  C2  UNL     1     -12.413  31.595  -1.200  0.00  0.00    +0.000 C 
ATOM      3  C3  UNL     1     -13.664  31.878  -1.596  0.00  0.00    +0.000 C 
ATOM      4  C4  UNL     1     -13.943  32.350  -2.954  0.00  0.00    +0.000 C 
ATOM      5  O1  UNL     1     -15.124  32.610  -3.303  0.00  0.00    +0.000 OA
ATOM      6  C5  UNL     1     -12.845  32.518  -3.901  0.00  0.00    +0.000 C 
ATOM      7  C6  UNL     1     -11.591  32.246  -3.537  0.00  0.00    +0.000 C 
ATOM      8  C7  UNL     1     -11.208  31.751  -2.147  0.00  0.00    +0.000 C 
ATOM      9  C8  UNL     1     -10.511  30.387  -2.323  0.00  0.00    +0.000 C 
ATOM     10  C9  UNL     1     -10.215  32.770  -1.555  0.00  0.00    +0.000 C 
ENDROOT
TORSDOF 0
ENDMDL
MODEL 6
REMARK VINA RESULT:      -3.1      5.342      7.046
REMARK  Name = .\Carvone.pdb
REMARK  3 active torsions:
REMARK  status: ('A' for Active; 'I' for Inactive)
REMARK    1  A    between atoms: C1_1  and  C2_2
REMARK    2  A    between atoms: C7_8  and  C8_9
REMARK    3  A    between atoms: C7_8  and  C9_10
REMARK                            x       y       z     vdW  Elec       q    Type
REMARK                         _______ _______ _______ _____ _____    ______ ____
ROOT
ATOM      1  C1  UNL     1      -8.484  29.444   6.321  0.00  0.00    +0.000 C 
ATOM      2  C2  UNL     1      -9.616  29.784   5.381  0.00  0.00    +0.000 C 
ATOM      3  C3  UNL     1      -9.358  30.662   4.399  0.00  0.00    +0.000 C 
ATOM      4  C4  UNL     1     -10.392  31.053   3.439  0.00  0.00    +0.000 C 
ATOM      5  O1  UNL     1     -10.127  31.878   2.525  0.00  0.00    +0.000 OA
ATOM      6  C5  UNL     1     -11.731  30.481   3.545  0.00  0.00    +0.000 C 
ATOM      7  C6  UNL     1     -12.018  29.606   4.509  0.00  0.00    +0.000 C 
ATOM      8  C7  UNL     1     -11.007  29.142   5.551  0.00  0.00    +0.000 C 
ATOM      9  C8  UNL     1     -11.577  29.507   6.936  0.00  0.00    +0.000 C 
ATOM     10  C9  UNL     1     -10.887  27.611   5.423  0.00  0.00    +0.000 C 
ENDROOT
TORSDOF 0
ENDMDL
MODEL 7
REMARK VINA RESULT:      -3.1      5.154      6.764
REMARK  Name = .\Carvone.pdb
REMARK  3 active torsions:
REMARK  status: ('A' for Active; 'I' for Inactive)
REMARK    1  A    between atoms: C1_1  and  C2_2
REMARK    2  A    between atoms: C7_8  and  C8_9
REMARK    3  A    between atoms: C7_8  and  C9_10
REMARK                            x       y       z     vdW  Elec       q    Type
REMARK                         _______ _______ _______ _____ _____    ______ ____
ROOT
ATOM      1  C1  UNL     1     -13.705  29.575   4.577  0.00  0.00    +0.000 C 
ATOM      2  C2  UNL     1     -12.218  29.833   4.580  0.00  0.00    +0.000 C 
ATOM      3  C3  UNL     1     -11.744  30.713   3.685  0.00  0.00    +0.000 C 
ATOM      4  C4  UNL     1     -10.316  31.029   3.612  0.00  0.00    +0.000 C 
ATOM      5  O1  UNL     1      -9.894  31.858   2.763  0.00  0.00    +0.000 OA
ATOM      6  C5  UNL     1      -9.384  30.378   4.528  0.00  0.00    +0.000 C 
ATOM      7  C6  UNL     1      -9.824  29.500   5.429  0.00  0.00    +0.000 C 
ATOM      8  C7  UNL     1     -11.290  29.110   5.577  0.00  0.00    +0.000 C 
ATOM      9  C8  UNL     1     -11.384  27.588   5.356  0.00  0.00    +0.000 C 
ATOM     10  C9  UNL     1     -11.713  29.455   7.018  0.00  0.00    +0.000 C 
ENDROOT
TORSDOF 0
ENDMDL
MODEL 8
REMARK VINA RESULT:      -3.0      6.040      7.663
REMARK  Name = .\Carvone.pdb
REMARK  3 active torsions:
REMARK  status: ('A' for Active; 'I' for Inactive)
REMARK    1  A    between atoms: C1_1  and  C2_2
REMARK    2  A    between atoms: C7_8  and  C8_9
REMARK    3  A    between atoms: C7_8  and  C9_10
REMARK                            x       y       z     vdW  Elec       q    Type
REMARK                         _______ _______ _______ _____ _____    ______ ____
ROOT
ATOM      1  C1  UNL     1     -10.832  28.618   7.779  0.00  0.00    +0.000 C 
ATOM      2  C2  UNL     1     -11.048  29.305   6.452  0.00  0.00    +0.000 C 
ATOM      3  C3  UNL     1     -12.300  29.332   5.969  0.00  0.00    +0.000 C 
ATOM      4  C4  UNL     1     -12.608  29.975   4.690  0.00  0.00    +0.000 C 
ATOM      5  O1  UNL     1     -13.790  29.988   4.257  0.00  0.00    +0.000 OA
ATOM      6  C5  UNL     1     -11.538  30.600   3.919  0.00  0.00    +0.000 C 
ATOM      7  C6  UNL     1     -10.284  30.590   4.372  0.00  0.00    +0.000 C 
ATOM      8  C7  UNL     1      -9.871  29.946   5.690  0.00  0.00    +0.000 C 
ATOM      9  C8  UNL     1      -8.820  28.866   5.363  0.00  0.00    +0.000 C 
ATOM     10  C9  UNL     1      -9.233  31.047   6.559  0.00  0.00    +0.000 C 
ENDROOT
TORSDOF 0
ENDMDL
MODEL 9
REMARK VINA RESULT:      -2.9      2.157      3.428
REMARK  Name = .\Carvone.pdb
REMARK  3 active torsions:
REMARK  status: ('A' for Active; 'I' for Inactive)
REMARK    1  A    between atoms: C1_1  and  C2_2
REMARK    2  A    between atoms: C7_8  and  C8_9
REMARK    3  A    between atoms: C7_8  and  C9_10
REMARK                            x       y       z     vdW  Elec       q    Type
REMARK                         _______ _______ _______ _____ _____    ______ ____
ROOT
ATOM      1  C1  UNL     1     -10.652  32.235   0.022  0.00  0.00    +0.000 C 
ATOM      2  C2  UNL     1     -11.710  31.452  -0.718  0.00  0.00    +0.000 C 
ATOM      3  C3  UNL     1     -12.772  31.033  -0.012  0.00  0.00    +0.000 C 
ATOM      4  C4  UNL     1     -13.849  30.267  -0.642  0.00  0.00    +0.000 C 
ATOM      5  O1  UNL     1     -14.836  29.885   0.040  0.00  0.00    +0.000 OA
ATOM      6  C5  UNL     1     -13.774  29.949  -2.065  0.00  0.00    +0.000 C 
ATOM      7  C6  UNL     1     -12.733  30.352  -2.793  0.00  0.00    +0.000 C 
ATOM      8  C7  UNL     1     -11.567  31.152  -2.223  0.00  0.00    +0.000 C 
ATOM      9  C8  UNL     1     -10.286  30.330  -2.465  0.00  0.00    +0.000 C 
ATOM     10  C9  UNL     1     -11.493  32.477  -3.007  0.00  0.00    +0.000 C 
ENDROOT
TORSDOF 0
ENDMDL
