MODEL 1
REMARK VINA RESULT:      -5.4      0.000      0.000
REMARK  Name = .\Carvacrol.pdb
REMARK  5 active torsions:
REMARK  status: ('A' for Active; 'I' for Inactive)
REMARK    1  A    between atoms: C1_1  and  C2_2
REMARK    2  A    between atoms: C2_2  and  C3_3
REMARK    3  A    between atoms: C2_2  and  C4_4
REMARK    4  A    between atoms: C6_6  and  O1_11
REMARK    5  A    between atoms: C7_7  and  C10_10
REMARK                            x       y       z     vdW  Elec       q    Type
REMARK                         _______ _______ _______ _____ _____    ______ ____
ROOT
ATOM      1  C4  UNL     1       2.960  54.933   9.276  0.00  0.00    +0.000 A 
ATOM      2  C5  UNL     1       2.446  54.809   7.974  0.00  0.00    +0.000 A 
ATOM      3  C6  UNL     1       2.904  55.639   6.941  0.00  0.00    +0.000 A 
ATOM      4  C7  UNL     1       3.888  56.608   7.203  0.00  0.00    +0.000 A 
ATOM      5  C8  UNL     1       4.403  56.734   8.502  0.00  0.00    +0.000 A 
ATOM      6  C9  UNL     1       3.944  55.905   9.529  0.00  0.00    +0.000 A 
ATOM      7  C10 UNL     1       4.384  57.501   6.101  0.00  0.00    +0.000 C 
ENDROOT
BRANCH   1   9
ATOM      8  C1  UNL     1       1.126  53.366   9.990  0.00  0.00    +0.000 C 
ATOM      9  C2  UNL     1       2.453  54.026  10.382  0.00  0.00    +0.000 C 
ATOM     10  C3  UNL     1       3.503  52.974  10.760  0.00  0.00    +0.000 C 
ENDBRANCH   1   9
BRANCH   3  11
ATOM     11  O1  UNL     1       2.383  55.504   5.653  0.00  0.00    +0.000 OA
ATOM     12  H14 UNL     1       2.844  54.938   4.950  0.00  0.00    +0.000 HD
ENDBRANCH   3  11
TORSDOF 2
ENDMDL
MODEL 2
REMARK VINA RESULT:      -4.9      1.452      2.059
REMARK  Name = .\Carvacrol.pdb
REMARK  5 active torsions:
REMARK  status: ('A' for Active; 'I' for Inactive)
REMARK    1  A    between atoms: C1_1  and  C2_2
REMARK    2  A    between atoms: C2_2  and  C3_3
REMARK    3  A    between atoms: C2_2  and  C4_4
REMARK    4  A    between atoms: C6_6  and  O1_11
REMARK    5  A    between atoms: C7_7  and  C10_10
REMARK                            x       y       z     vdW  Elec       q    Type
REMARK                         _______ _______ _______ _____ _____    ______ ____
ROOT
ATOM      1  C4  UNL     1       2.945  55.061   9.072  0.00  0.00    +0.000 A 
ATOM      2  C5  UNL     1       3.867  56.089   9.331  0.00  0.00    +0.000 A 
ATOM      3  C6  UNL     1       4.341  56.904   8.293  0.00  0.00    +0.000 A 
ATOM      4  C7  UNL     1       3.893  56.696   6.976  0.00  0.00    +0.000 A 
ATOM      5  C8  UNL     1       2.972  55.670   6.716  0.00  0.00    +0.000 A 
ATOM      6  C9  UNL     1       2.502  54.860   7.753  0.00  0.00    +0.000 A 
ATOM      7  C10 UNL     1       4.396  57.565   5.859  0.00  0.00    +0.000 C 
ENDROOT
BRANCH   1   9
ATOM      8  C1  UNL     1       1.085  53.563   9.865  0.00  0.00    +0.000 C 
ATOM      9  C2  UNL     1       2.443  54.188  10.207  0.00  0.00    +0.000 C 
ATOM     10  C3  UNL     1       3.470  53.110  10.573  0.00  0.00    +0.000 C 
ENDBRANCH   1   9
BRANCH   3  11
ATOM     11  O1  UNL     1       5.257  57.920   8.565  0.00  0.00    +0.000 OA
ATOM     12  H14 UNL     1       6.062  57.764   9.161  0.00  0.00    +0.000 HD
ENDBRANCH   3  11
TORSDOF 2
ENDMDL
MODEL 3
REMARK VINA RESULT:      -4.9      2.075      4.706
REMARK  Name = .\Carvacrol.pdb
REMARK  5 active torsions:
REMARK  status: ('A' for Active; 'I' for Inactive)
REMARK    1  A    between atoms: C1_1  and  C2_2
REMARK    2  A    between atoms: C2_2  and  C3_3
REMARK    3  A    between atoms: C2_2  and  C4_4
REMARK    4  A    between atoms: C6_6  and  O1_11
REMARK    5  A    between atoms: C7_7  and  C10_10
REMARK                            x       y       z     vdW  Elec       q    Type
REMARK                         _______ _______ _______ _____ _____    ______ ____
ROOT
ATOM      1  C4  UNL     1       3.228  54.266  10.017  0.00  0.00    +0.000 A 
ATOM      2  C5  UNL     1       1.865  54.418   9.713  0.00  0.00    +0.000 A 
ATOM      3  C6  UNL     1       0.939  53.421  10.054  0.00  0.00    +0.000 A 
ATOM      4  C7  UNL     1       1.374  52.253  10.705  0.00  0.00    +0.000 A 
ATOM      5  C8  UNL     1       2.735  52.099  11.009  0.00  0.00    +0.000 A 
ATOM      6  C9  UNL     1       3.653  53.095  10.669  0.00  0.00    +0.000 A 
ATOM      7  C10 UNL     1       0.389  51.180  11.072  0.00  0.00    +0.000 C 
ENDROOT
BRANCH   1   9
ATOM      8  C1  UNL     1       3.734  56.139   8.415  0.00  0.00    +0.000 C 
ATOM      9  C2  UNL     1       4.216  55.356   9.642  0.00  0.00    +0.000 C 
ATOM     10  C3  UNL     1       4.482  56.293  10.826  0.00  0.00    +0.000 C 
ENDBRANCH   1   9
BRANCH   3  11
ATOM     11  O1  UNL     1      -0.411  53.586   9.745  0.00  0.00    +0.000 OA
ATOM     12  H14 UNL     1      -0.716  53.838   8.811  0.00  0.00    +0.000 HD
ENDBRANCH   3  11
TORSDOF 2
ENDMDL
MODEL 4
REMARK VINA RESULT:      -4.8      2.225      4.743
REMARK  Name = .\Carvacrol.pdb
REMARK  5 active torsions:
REMARK  status: ('A' for Active; 'I' for Inactive)
REMARK    1  A    between atoms: C1_1  and  C2_2
REMARK    2  A    between atoms: C2_2  and  C3_3
REMARK    3  A    between atoms: C2_2  and  C4_4
REMARK    4  A    between atoms: C6_6  and  O1_11
REMARK    5  A    between atoms: C7_7  and  C10_10
REMARK                            x       y       z     vdW  Elec       q    Type
REMARK                         _______ _______ _______ _____ _____    ______ ____
ROOT
ATOM      1  C4  UNL     1       3.028  54.880   8.539  0.00  0.00    +0.000 A 
ATOM      2  C5  UNL     1       3.681  54.296   9.638  0.00  0.00    +0.000 A 
ATOM      3  C6  UNL     1       3.048  53.309  10.407  0.00  0.00    +0.000 A 
ATOM      4  C7  UNL     1       1.745  52.894  10.081  0.00  0.00    +0.000 A 
ATOM      5  C8  UNL     1       1.090  53.475   8.984  0.00  0.00    +0.000 A 
ATOM      6  C9  UNL     1       1.725  54.458   8.220  0.00  0.00    +0.000 A 
ATOM      7  C10 UNL     1       1.060  51.837  10.900  0.00  0.00    +0.000 C 
ENDROOT
BRANCH   1   9
ATOM      8  C1  UNL     1       2.781  56.552   6.676  0.00  0.00    +0.000 C 
ATOM      9  C2  UNL     1       3.728  55.946   7.718  0.00  0.00    +0.000 C 
ATOM     10  C3  UNL     1       4.326  57.034   8.619  0.00  0.00    +0.000 C 
ENDBRANCH   1   9
BRANCH   3  11
ATOM     11  O1  UNL     1       3.709  52.740  11.495  0.00  0.00    +0.000 OA
ATOM     12  H14 UNL     1       4.649  53.021  11.753  0.00  0.00    +0.000 HD
ENDBRANCH   3  11
TORSDOF 2
ENDMDL
MODEL 5
REMARK VINA RESULT:      -4.8      2.711      5.463
REMARK  Name = .\Carvacrol.pdb
REMARK  5 active torsions:
REMARK  status: ('A' for Active; 'I' for Inactive)
REMARK    1  A    between atoms: C1_1  and  C2_2
REMARK    2  A    between atoms: C2_2  and  C3_3
REMARK    3  A    between atoms: C2_2  and  C4_4
REMARK    4  A    between atoms: C6_6  and  O1_11
REMARK    5  A    between atoms: C7_7  and  C10_10
REMARK                            x       y       z     vdW  Elec       q    Type
REMARK                         _______ _______ _______ _____ _____    ______ ____
ROOT
ATOM      1  C4  UNL     1       2.443  53.623  10.179  0.00  0.00    +0.000 A 
ATOM      2  C5  UNL     1       1.081  53.282  10.252  0.00  0.00    +0.000 A 
ATOM      3  C6  UNL     1       0.670  52.110  10.905  0.00  0.00    +0.000 A 
ATOM      4  C7  UNL     1       1.625  51.263  11.494  0.00  0.00    +0.000 A 
ATOM      5  C8  UNL     1       2.985  51.601  11.422  0.00  0.00    +0.000 A 
ATOM      6  C9  UNL     1       3.390  52.769  10.772  0.00  0.00    +0.000 A 
ATOM      7  C10 UNL     1       1.192  50.007  12.195  0.00  0.00    +0.000 C 
ENDROOT
BRANCH   1   9
ATOM      8  C1  UNL     1       4.316  55.263   9.820  0.00  0.00    +0.000 C 
ATOM      9  C2  UNL     1       2.870  54.894   9.469  0.00  0.00    +0.000 C 
ATOM     10  C3  UNL     1       2.684  54.769   7.952  0.00  0.00    +0.000 C 
ENDBRANCH   1   9
BRANCH   3  11
ATOM     11  O1  UNL     1      -0.685  51.785  10.968  0.00  0.00    +0.000 OA
ATOM     12  H14 UNL     1      -1.186  51.435  10.160  0.00  0.00    +0.000 HD
ENDBRANCH   3  11
TORSDOF 2
ENDMDL
MODEL 6
REMARK VINA RESULT:      -4.8      1.414      3.665
REMARK  Name = .\Carvacrol.pdb
REMARK  5 active torsions:
REMARK  status: ('A' for Active; 'I' for Inactive)
REMARK    1  A    between atoms: C1_1  and  C2_2
REMARK    2  A    between atoms: C2_2  and  C3_3
REMARK    3  A    between atoms: C2_2  and  C4_4
REMARK    4  A    between atoms: C6_6  and  O1_11
REMARK    5  A    between atoms: C7_7  and  C10_10
REMARK                            x       y       z     vdW  Elec       q    Type
REMARK                         _______ _______ _______ _____ _____    ______ ____
ROOT
ATOM      1  C4  UNL     1       4.291  56.622   9.088  0.00  0.00    +0.000 A 
ATOM      2  C5  UNL     1       3.834  56.452   7.770  0.00  0.00    +0.000 A 
ATOM      3  C6  UNL     1       2.882  55.469   7.464  0.00  0.00    +0.000 A 
ATOM      4  C7  UNL     1       2.376  54.640   8.480  0.00  0.00    +0.000 A 
ATOM      5  C8  UNL     1       2.831  54.808   9.797  0.00  0.00    +0.000 A 
ATOM      6  C9  UNL     1       3.779  55.789  10.098  0.00  0.00    +0.000 A 
ATOM      7  C10 UNL     1       1.356  53.585   8.160  0.00  0.00    +0.000 C 
ENDROOT
BRANCH   1   9
ATOM      8  C1  UNL     1       5.049  58.338  10.765  0.00  0.00    +0.000 C 
ATOM      9  C2  UNL     1       5.322  57.691   9.402  0.00  0.00    +0.000 C 
ATOM     10  C3  UNL     1       6.745  57.124   9.334  0.00  0.00    +0.000 C 
ENDBRANCH   1   9
BRANCH   3  11
ATOM     11  O1  UNL     1       2.437  55.312   6.151  0.00  0.00    +0.000 OA
ATOM     12  H14 UNL     1       2.601  54.456   5.633  0.00  0.00    +0.000 HD
ENDBRANCH   3  11
TORSDOF 2
ENDMDL
MODEL 7
REMARK VINA RESULT:      -4.8      1.397      4.111
REMARK  Name = .\Carvacrol.pdb
REMARK  5 active torsions:
REMARK  status: ('A' for Active; 'I' for Inactive)
REMARK    1  A    between atoms: C1_1  and  C2_2
REMARK    2  A    between atoms: C2_2  and  C3_3
REMARK    3  A    between atoms: C2_2  and  C4_4
REMARK    4  A    between atoms: C6_6  and  O1_11
REMARK    5  A    between atoms: C7_7  and  C10_10
REMARK                            x       y       z     vdW  Elec       q    Type
REMARK                         _______ _______ _______ _____ _____    ______ ____
ROOT
ATOM      1  C4  UNL     1       3.586  55.318   8.669  0.00  0.00    +0.000 A 
ATOM      2  C5  UNL     1       2.430  54.858   8.014  0.00  0.00    +0.000 A 
ATOM      3  C6  UNL     1       1.590  53.914   8.622  0.00  0.00    +0.000 A 
ATOM      4  C7  UNL     1       1.902  53.416   9.899  0.00  0.00    +0.000 A 
ATOM      5  C8  UNL     1       3.055  53.874  10.555  0.00  0.00    +0.000 A 
ATOM      6  C9  UNL     1       3.889  54.815   9.947  0.00  0.00    +0.000 A 
ATOM      7  C10 UNL     1       1.007  52.404  10.556  0.00  0.00    +0.000 C 
ENDROOT
BRANCH   1   9
ATOM      8  C1  UNL     1       3.754  57.044   6.847  0.00  0.00    +0.000 C 
ATOM      9  C2  UNL     1       4.483  56.340   7.996  0.00  0.00    +0.000 C 
ATOM     10  C3  UNL     1       5.024  57.354   9.012  0.00  0.00    +0.000 C 
ENDBRANCH   1   9
BRANCH   3  11
ATOM     11  O1  UNL     1       0.447  53.466   7.959  0.00  0.00    +0.000 OA
ATOM     12  H14 UNL     1      -0.483  53.697   8.288  0.00  0.00    +0.000 HD
ENDBRANCH   3  11
TORSDOF 2
ENDMDL
MODEL 8
REMARK VINA RESULT:      -4.6      3.157      4.906
REMARK  Name = .\Carvacrol.pdb
REMARK  5 active torsions:
REMARK  status: ('A' for Active; 'I' for Inactive)
REMARK    1  A    between atoms: C1_1  and  C2_2
REMARK    2  A    between atoms: C2_2  and  C3_3
REMARK    3  A    between atoms: C2_2  and  C4_4
REMARK    4  A    between atoms: C6_6  and  O1_11
REMARK    5  A    between atoms: C7_7  and  C10_10
REMARK                            x       y       z     vdW  Elec       q    Type
REMARK                         _______ _______ _______ _____ _____    ______ ____
ROOT
ATOM      1  C4  UNL     1       1.894  50.826  11.559  0.00  0.00    +0.000 A 
ATOM      2  C5  UNL     1       0.830  51.530  10.969  0.00  0.00    +0.000 A 
ATOM      3  C6  UNL     1       1.042  52.784  10.379  0.00  0.00    +0.000 A 
ATOM      4  C7  UNL     1       2.329  53.349  10.373  0.00  0.00    +0.000 A 
ATOM      5  C8  UNL     1       3.393  52.648  10.962  0.00  0.00    +0.000 A 
ATOM      6  C9  UNL     1       3.178  51.399  11.549  0.00  0.00    +0.000 A 
ATOM      7  C10 UNL     1       2.564  54.692   9.743  0.00  0.00    +0.000 C 
ENDROOT
BRANCH   1   9
ATOM      8  C1  UNL     1       0.165  49.284  12.541  0.00  0.00    +0.000 C 
ATOM      9  C2  UNL     1       1.647  49.470  12.194  0.00  0.00    +0.000 C 
ATOM     10  C3  UNL     1       2.149  48.336  11.291  0.00  0.00    +0.000 C 
ENDBRANCH   1   9
BRANCH   3  11
ATOM     11  O1  UNL     1      -0.024  53.471   9.797  0.00  0.00    +0.000 OA
ATOM     12  H14 UNL     1       0.004  53.776   8.831  0.00  0.00    +0.000 HD
ENDBRANCH   3  11
TORSDOF 2
ENDMDL
MODEL 9
REMARK VINA RESULT:      -4.5      3.201      5.977
REMARK  Name = .\Carvacrol.pdb
REMARK  5 active torsions:
REMARK  status: ('A' for Active; 'I' for Inactive)
REMARK    1  A    between atoms: C1_1  and  C2_2
REMARK    2  A    between atoms: C2_2  and  C3_3
REMARK    3  A    between atoms: C2_2  and  C4_4
REMARK    4  A    between atoms: C6_6  and  O1_11
REMARK    5  A    between atoms: C7_7  and  C10_10
REMARK                            x       y       z     vdW  Elec       q    Type
REMARK                         _______ _______ _______ _____ _____    ______ ____
ROOT
ATOM      1  C4  UNL     1       2.255  53.265  10.396  0.00  0.00    +0.000 A 
ATOM      2  C5  UNL     1       3.185  52.459  11.074  0.00  0.00    +0.000 A 
ATOM      3  C6  UNL     1       2.783  51.262  11.685  0.00  0.00    +0.000 A 
ATOM      4  C7  UNL     1       1.438  50.858  11.623  0.00  0.00    +0.000 A 
ATOM      5  C8  UNL     1       0.508  51.662  10.946  0.00  0.00    +0.000 A 
ATOM      6  C9  UNL     1       0.912  52.853  10.339  0.00  0.00    +0.000 A 
ATOM      7  C10 UNL     1       1.001  49.578  12.276  0.00  0.00    +0.000 C 
ENDROOT
BRANCH   1   9
ATOM      8  C1  UNL     1       4.165  54.875  10.093  0.00  0.00    +0.000 C 
ATOM      9  C2  UNL     1       2.707  54.557   9.740  0.00  0.00    +0.000 C 
ATOM     10  C3  UNL     1       2.503  54.507   8.221  0.00  0.00    +0.000 C 
ENDBRANCH   1   9
BRANCH   3  11
ATOM     11  O1  UNL     1       3.718  50.472  12.356  0.00  0.00    +0.000 OA
ATOM     12  H14 UNL     1       3.686  49.460  12.314  0.00  0.00    +0.000 HD
ENDBRANCH   3  11
TORSDOF 2
ENDMDL
