MODEL 1
REMARK VINA RESULT:       2.0      0.000      0.000
REMARK  Name = .\Carvacrol.pdb
REMARK  5 active torsions:
REMARK  status: ('A' for Active; 'I' for Inactive)
REMARK    1  A    between atoms: C1_1  and  C2_2
REMARK    2  A    between atoms: C2_2  and  C3_3
REMARK    3  A    between atoms: C2_2  and  C4_4
REMARK    4  A    between atoms: C6_6  and  O1_11
REMARK    5  A    between atoms: C7_7  and  C10_10
REMARK                            x       y       z     vdW  Elec       q    Type
REMARK                         _______ _______ _______ _____ _____    ______ ____
ROOT
ATOM      1  C4  UNL     1      -5.488  52.358  -5.006  0.00  0.00    +0.000 A 
ATOM      2  C5  UNL     1      -5.199  52.743  -6.326  0.00  0.00    +0.000 A 
ATOM      3  C6  UNL     1      -6.030  53.645  -7.007  0.00  0.00    +0.000 A 
ATOM      4  C7  UNL     1      -7.166  54.172  -6.369  0.00  0.00    +0.000 A 
ATOM      5  C8  UNL     1      -7.457  53.788  -5.051  0.00  0.00    +0.000 A 
ATOM      6  C9  UNL     1      -6.627  52.890  -4.376  0.00  0.00    +0.000 A 
ATOM      7  C10 UNL     1      -8.061  55.138  -7.092  0.00  0.00    +0.000 C 
ENDROOT
BRANCH   1   9
ATOM      8  C1  UNL     1      -3.120  51.558  -4.722  0.00  0.00    +0.000 C 
ATOM      9  C2  UNL     1      -4.578  51.381  -4.284  0.00  0.00    +0.000 C 
ATOM     10  C3  UNL     1      -4.719  51.515  -2.763  0.00  0.00    +0.000 C 
ENDBRANCH   1   9
BRANCH   3  11
ATOM     11  O1  UNL     1      -5.730  54.018  -8.318  0.00  0.00    +0.000 OA
ATOM     12  H14 UNL     1      -4.807  53.876  -8.713  0.00  0.00    +0.000 HD
ENDBRANCH   3  11
TORSDOF 2
ENDMDL
MODEL 2
REMARK VINA RESULT:       2.4      1.643      4.262
REMARK  Name = .\Carvacrol.pdb
REMARK  5 active torsions:
REMARK  status: ('A' for Active; 'I' for Inactive)
REMARK    1  A    between atoms: C1_1  and  C2_2
REMARK    2  A    between atoms: C2_2  and  C3_3
REMARK    3  A    between atoms: C2_2  and  C4_4
REMARK    4  A    between atoms: C6_6  and  O1_11
REMARK    5  A    between atoms: C7_7  and  C10_10
REMARK                            x       y       z     vdW  Elec       q    Type
REMARK                         _______ _______ _______ _____ _____    ______ ____
ROOT
ATOM      1  C4  UNL     1      -6.284  53.427  -6.428  0.00  0.00    +0.000 A 
ATOM      2  C5  UNL     1      -5.095  52.678  -6.430  0.00  0.00    +0.000 A 
ATOM      3  C6  UNL     1      -4.716  51.934  -5.304  0.00  0.00    +0.000 A 
ATOM      4  C7  UNL     1      -5.527  51.933  -4.156  0.00  0.00    +0.000 A 
ATOM      5  C8  UNL     1      -6.715  52.681  -4.152  0.00  0.00    +0.000 A 
ATOM      6  C9  UNL     1      -7.090  53.420  -5.276  0.00  0.00    +0.000 A 
ATOM      7  C10 UNL     1      -5.127  51.139  -2.946  0.00  0.00    +0.000 C 
ENDROOT
BRANCH   1   9
ATOM      8  C1  UNL     1      -7.736  55.283  -7.310  0.00  0.00    +0.000 C 
ATOM      9  C2  UNL     1      -6.680  54.227  -7.655  0.00  0.00    +0.000 C 
ATOM     10  C3  UNL     1      -5.454  54.867  -8.318  0.00  0.00    +0.000 C 
ENDBRANCH   1   9
BRANCH   3  11
ATOM     11  O1  UNL     1      -3.532  51.195  -5.321  0.00  0.00    +0.000 OA
ATOM     12  H14 UNL     1      -2.999  51.026  -4.476  0.00  0.00    +0.000 HD
ENDBRANCH   3  11
TORSDOF 2
ENDMDL
MODEL 3
REMARK VINA RESULT:       3.5      2.141      3.049
REMARK  Name = .\Carvacrol.pdb
REMARK  5 active torsions:
REMARK  status: ('A' for Active; 'I' for Inactive)
REMARK    1  A    between atoms: C1_1  and  C2_2
REMARK    2  A    between atoms: C2_2  and  C3_3
REMARK    3  A    between atoms: C2_2  and  C4_4
REMARK    4  A    between atoms: C6_6  and  O1_11
REMARK    5  A    between atoms: C7_7  and  C10_10
REMARK                            x       y       z     vdW  Elec       q    Type
REMARK                         _______ _______ _______ _____ _____    ______ ____
ROOT
ATOM      1  C4  UNL     1      -4.598  53.105  -3.675  0.00  0.00    +0.000 A 
ATOM      2  C5  UNL     1      -5.728  53.641  -4.315  0.00  0.00    +0.000 A 
ATOM      3  C6  UNL     1      -6.273  53.018  -5.448  0.00  0.00    +0.000 A 
ATOM      4  C7  UNL     1      -5.687  51.846  -5.954  0.00  0.00    +0.000 A 
ATOM      5  C8  UNL     1      -4.558  51.308  -5.317  0.00  0.00    +0.000 A 
ATOM      6  C9  UNL     1      -4.018  51.931  -4.189  0.00  0.00    +0.000 A 
ATOM      7  C10 UNL     1      -6.265  51.173  -7.167  0.00  0.00    +0.000 C 
ENDROOT
BRANCH   1   9
ATOM      8  C1  UNL     1      -2.511  53.552  -2.343  0.00  0.00    +0.000 C 
ATOM      9  C2  UNL     1      -4.021  53.791  -2.451  0.00  0.00    +0.000 C 
ATOM     10  C3  UNL     1      -4.344  55.290  -2.454  0.00  0.00    +0.000 C 
ENDBRANCH   1   9
BRANCH   3  11
ATOM     11  O1  UNL     1      -7.395  53.563  -6.072  0.00  0.00    +0.000 OA
ATOM     12  H14 UNL     1      -8.146  52.978  -6.420  0.00  0.00    +0.000 HD
ENDBRANCH   3  11
TORSDOF 2
ENDMDL
MODEL 4
REMARK VINA RESULT:       3.6      2.409      4.422
REMARK  Name = .\Carvacrol.pdb
REMARK  5 active torsions:
REMARK  status: ('A' for Active; 'I' for Inactive)
REMARK    1  A    between atoms: C1_1  and  C2_2
REMARK    2  A    between atoms: C2_2  and  C3_3
REMARK    3  A    between atoms: C2_2  and  C4_4
REMARK    4  A    between atoms: C6_6  and  O1_11
REMARK    5  A    between atoms: C7_7  and  C10_10
REMARK                            x       y       z     vdW  Elec       q    Type
REMARK                         _______ _______ _______ _____ _____    ______ ____
ROOT
ATOM      1  C4  UNL     1      -5.627  52.601  -5.176  0.00  0.00    +0.000 A 
ATOM      2  C5  UNL     1      -5.692  53.768  -4.397  0.00  0.00    +0.000 A 
ATOM      3  C6  UNL     1      -4.684  54.067  -3.468  0.00  0.00    +0.000 A 
ATOM      4  C7  UNL     1      -3.594  53.193  -3.310  0.00  0.00    +0.000 A 
ATOM      5  C8  UNL     1      -3.527  52.027  -4.088  0.00  0.00    +0.000 A 
ATOM      6  C9  UNL     1      -4.533  51.733  -5.012  0.00  0.00    +0.000 A 
ATOM      7  C10 UNL     1      -2.511  53.506  -2.318  0.00  0.00    +0.000 C 
ENDROOT
BRANCH   1   9
ATOM      8  C1  UNL     1      -7.208  53.569  -6.878  0.00  0.00    +0.000 C 
ATOM      9  C2  UNL     1      -6.726  52.294  -6.176  0.00  0.00    +0.000 C 
ATOM     10  C3  UNL     1      -6.270  51.242  -7.194  0.00  0.00    +0.000 C 
ENDBRANCH   1   9
BRANCH   3  11
ATOM     11  O1  UNL     1      -4.763  55.229  -2.701  0.00  0.00    +0.000 OA
ATOM     12  H14 UNL     1      -5.084  56.106  -3.095  0.00  0.00    +0.000 HD
ENDBRANCH   3  11
TORSDOF 2
ENDMDL
MODEL 5
REMARK VINA RESULT:       4.8      2.077      4.364
REMARK  Name = .\Carvacrol.pdb
REMARK  5 active torsions:
REMARK  status: ('A' for Active; 'I' for Inactive)
REMARK    1  A    between atoms: C1_1  and  C2_2
REMARK    2  A    between atoms: C2_2  and  C3_3
REMARK    3  A    between atoms: C2_2  and  C4_4
REMARK    4  A    between atoms: C6_6  and  O1_11
REMARK    5  A    between atoms: C7_7  and  C10_10
REMARK                            x       y       z     vdW  Elec       q    Type
REMARK                         _______ _______ _______ _____ _____    ______ ____
ROOT
ATOM      1  C4  UNL     1      -5.696  53.027  -5.684  0.00  0.00    +0.000 A 
ATOM      2  C5  UNL     1      -4.569  52.202  -5.840  0.00  0.00    +0.000 A 
ATOM      3  C6  UNL     1      -3.631  52.070  -4.806  0.00  0.00    +0.000 A 
ATOM      4  C7  UNL     1      -3.813  52.766  -3.598  0.00  0.00    +0.000 A 
ATOM      5  C8  UNL     1      -4.938  53.591  -3.441  0.00  0.00    +0.000 A 
ATOM      6  C9  UNL     1      -5.871  53.720  -4.473  0.00  0.00    +0.000 A 
ATOM      7  C10 UNL     1      -2.812  52.629  -2.487  0.00  0.00    +0.000 C 
ENDROOT
BRANCH   1   9
ATOM      8  C1  UNL     1      -7.542  54.431  -6.659  0.00  0.00    +0.000 C 
ATOM      9  C2  UNL     1      -6.702  53.159  -6.813  0.00  0.00    +0.000 C 
ATOM     10  C3  UNL     1      -6.007  53.118  -8.180  0.00  0.00    +0.000 C 
ENDBRANCH   1   9
BRANCH   3  11
ATOM     11  O1  UNL     1      -2.516  51.248  -4.975  0.00  0.00    +0.000 OA
ATOM     12  H14 UNL     1      -1.572  51.608  -4.891  0.00  0.00    +0.000 HD
ENDBRANCH   3  11
TORSDOF 2
ENDMDL
