MODEL 1
REMARK VINA RESULT:      -5.5      0.000      0.000
REMARK  Name = .\Carvone.pdb
REMARK  3 active torsions:
REMARK  status: ('A' for Active; 'I' for Inactive)
REMARK    1  A    between atoms: C1_1  and  C2_2
REMARK    2  A    between atoms: C7_8  and  C8_9
REMARK    3  A    between atoms: C7_8  and  C9_10
REMARK                            x       y       z     vdW  Elec       q    Type
REMARK                         _______ _______ _______ _____ _____    ______ ____
ROOT
ATOM      1  C1  UNL     1       9.193  77.987  64.953  0.00  0.00    +0.000 C 
ATOM      2  C2  UNL     1       8.347  76.857  65.488  0.00  0.00    +0.000 C 
ATOM      3  C3  UNL     1       8.563  75.633  64.982  0.00  0.00    +0.000 C 
ATOM      4  C4  UNL     1       7.792  74.475  65.438  0.00  0.00    +0.000 C 
ATOM      5  O1  UNL     1       8.013  73.335  64.950  0.00  0.00    +0.000 OA
ATOM      6  C5  UNL     1       6.766  74.647  66.462  0.00  0.00    +0.000 C 
ATOM      7  C6  UNL     1       6.528  75.850  66.984  0.00  0.00    +0.000 C 
ATOM      8  C7  UNL     1       7.280  77.110  66.571  0.00  0.00    +0.000 C 
ATOM      9  C8  UNL     1       6.236  78.113  66.042  0.00  0.00    +0.000 C 
ATOM     10  C9  UNL     1       7.953  77.677  67.836  0.00  0.00    +0.000 C 
ENDROOT
TORSDOF 0
ENDMDL
MODEL 2
REMARK VINA RESULT:      -5.1      1.488      2.979
REMARK  Name = .\Carvone.pdb
REMARK  3 active torsions:
REMARK  status: ('A' for Active; 'I' for Inactive)
REMARK    1  A    between atoms: C1_1  and  C2_2
REMARK    2  A    between atoms: C7_8  and  C8_9
REMARK    3  A    between atoms: C7_8  and  C9_10
REMARK                            x       y       z     vdW  Elec       q    Type
REMARK                         _______ _______ _______ _____ _____    ______ ____
ROOT
ATOM      1  C1  UNL     1       7.042  74.457  66.407  0.00  0.00    +0.000 C 
ATOM      2  C2  UNL     1       7.810  75.609  65.806  0.00  0.00    +0.000 C 
ATOM      3  C3  UNL     1       8.649  75.329  64.796  0.00  0.00    +0.000 C 
ATOM      4  C4  UNL     1       9.437  76.380  64.149  0.00  0.00    +0.000 C 
ATOM      5  O1  UNL     1      10.217  76.094  63.203  0.00  0.00    +0.000 OA
ATOM      6  C5  UNL     1       9.314  77.761  64.606  0.00  0.00    +0.000 C 
ATOM      7  C6  UNL     1       8.490  78.071  65.607  0.00  0.00    +0.000 C 
ATOM      8  C7  UNL     1       7.632  77.044  66.338  0.00  0.00    +0.000 C 
ATOM      9  C8  UNL     1       8.027  77.094  67.827  0.00  0.00    +0.000 C 
ATOM     10  C9  UNL     1       6.162  77.475  66.174  0.00  0.00    +0.000 C 
ENDROOT
TORSDOF 0
ENDMDL
MODEL 3
REMARK VINA RESULT:      -4.6      1.946      3.405
REMARK  Name = .\Carvone.pdb
REMARK  3 active torsions:
REMARK  status: ('A' for Active; 'I' for Inactive)
REMARK    1  A    between atoms: C1_1  and  C2_2
REMARK    2  A    between atoms: C7_8  and  C8_9
REMARK    3  A    between atoms: C7_8  and  C9_10
REMARK                            x       y       z     vdW  Elec       q    Type
REMARK                         _______ _______ _______ _____ _____    ______ ____
ROOT
ATOM      1  C1  UNL     1       9.639  75.557  64.019  0.00  0.00    +0.000 C 
ATOM      2  C2  UNL     1       8.548  75.757  65.043  0.00  0.00    +0.000 C 
ATOM      3  C3  UNL     1       8.263  77.019  65.401  0.00  0.00    +0.000 C 
ATOM      4  C4  UNL     1       7.222  77.313  66.386  0.00  0.00    +0.000 C 
ATOM      5  O1  UNL     1       6.971  78.506  66.706  0.00  0.00    +0.000 OA
ATOM      6  C5  UNL     1       6.474  76.218  66.998  0.00  0.00    +0.000 C 
ATOM      7  C6  UNL     1       6.733  74.954  66.663  0.00  0.00    +0.000 C 
ATOM      8  C7  UNL     1       7.798  74.554  65.649  0.00  0.00    +0.000 C 
ATOM      9  C8  UNL     1       8.800  73.635  66.374  0.00  0.00    +0.000 C 
ATOM     10  C9  UNL     1       7.090  73.771  64.526  0.00  0.00    +0.000 C 
ENDROOT
TORSDOF 0
ENDMDL
MODEL 4
REMARK VINA RESULT:      -4.1      6.157      7.701
REMARK  Name = .\Carvone.pdb
REMARK  3 active torsions:
REMARK  status: ('A' for Active; 'I' for Inactive)
REMARK    1  A    between atoms: C1_1  and  C2_2
REMARK    2  A    between atoms: C7_8  and  C8_9
REMARK    3  A    between atoms: C7_8  and  C9_10
REMARK                            x       y       z     vdW  Elec       q    Type
REMARK                         _______ _______ _______ _____ _____    ______ ____
ROOT
ATOM      1  C1  UNL     1       6.075  84.131  71.596  0.00  0.00    +0.000 C 
ATOM      2  C2  UNL     1       6.319  83.054  70.568  0.00  0.00    +0.000 C 
ATOM      3  C3  UNL     1       7.529  83.022  69.985  0.00  0.00    +0.000 C 
ATOM      4  C4  UNL     1       7.860  82.014  68.977  0.00  0.00    +0.000 C 
ATOM      5  O1  UNL     1       9.001  82.003  68.444  0.00  0.00    +0.000 OA
ATOM      6  C5  UNL     1       6.861  81.021  68.591  0.00  0.00    +0.000 C 
ATOM      7  C6  UNL     1       5.652  81.026  69.151  0.00  0.00    +0.000 C 
ATOM      8  C7  UNL     1       5.219  82.036  70.208  0.00  0.00    +0.000 C 
ATOM      9  C8  UNL     1       3.990  82.782  69.652  0.00  0.00    +0.000 C 
ATOM     10  C9  UNL     1       4.822  81.241  71.466  0.00  0.00    +0.000 C 
ENDROOT
TORSDOF 0
ENDMDL
MODEL 5
REMARK VINA RESULT:      -4.1      5.928      7.553
REMARK  Name = .\Carvone.pdb
REMARK  3 active torsions:
REMARK  status: ('A' for Active; 'I' for Inactive)
REMARK    1  A    between atoms: C1_1  and  C2_2
REMARK    2  A    between atoms: C7_8  and  C8_9
REMARK    3  A    between atoms: C7_8  and  C9_10
REMARK                            x       y       z     vdW  Elec       q    Type
REMARK                         _______ _______ _______ _____ _____    ______ ____
ROOT
ATOM      1  C1  UNL     1       6.503  79.760  68.412  0.00  0.00    +0.000 C 
ATOM      2  C2  UNL     1       6.776  81.206  68.745  0.00  0.00    +0.000 C 
ATOM      3  C3  UNL     1       8.019  81.665  68.527  0.00  0.00    +0.000 C 
ATOM      4  C4  UNL     1       8.379  83.053  68.819  0.00  0.00    +0.000 C 
ATOM      5  O1  UNL     1       9.551  83.461  68.606  0.00  0.00    +0.000 OA
ATOM      6  C5  UNL     1       7.373  83.963  69.358  0.00  0.00    +0.000 C 
ATOM      7  C6  UNL     1       6.130  83.539  69.585  0.00  0.00    +0.000 C 
ATOM      8  C7  UNL     1       5.665  82.112  69.312  0.00  0.00    +0.000 C 
ATOM      9  C8  UNL     1       5.159  81.532  70.647  0.00  0.00    +0.000 C 
ATOM     10  C9  UNL     1       4.502  82.194  68.304  0.00  0.00    +0.000 C 
ENDROOT
TORSDOF 0
ENDMDL
MODEL 6
REMARK VINA RESULT:      -4.1      5.545      7.215
REMARK  Name = .\Carvone.pdb
REMARK  3 active torsions:
REMARK  status: ('A' for Active; 'I' for Inactive)
REMARK    1  A    between atoms: C1_1  and  C2_2
REMARK    2  A    between atoms: C7_8  and  C8_9
REMARK    3  A    between atoms: C7_8  and  C9_10
REMARK                            x       y       z     vdW  Elec       q    Type
REMARK                         _______ _______ _______ _____ _____    ______ ____
ROOT
ATOM      1  C1  UNL     1       4.143  82.510  69.767  0.00  0.00    +0.000 C 
ATOM      2  C2  UNL     1       5.564  82.164  69.394  0.00  0.00    +0.000 C 
ATOM      3  C3  UNL     1       5.764  81.013  68.733  0.00  0.00    +0.000 C 
ATOM      4  C4  UNL     1       7.106  80.592  68.329  0.00  0.00    +0.000 C 
ATOM      5  O1  UNL     1       7.270  79.508  67.710  0.00  0.00    +0.000 OA
ATOM      6  C5  UNL     1       8.255  81.434  68.648  0.00  0.00    +0.000 C 
ATOM      7  C6  UNL     1       8.089  82.584  69.302  0.00  0.00    +0.000 C 
ATOM      8  C7  UNL     1       6.731  83.101  69.762  0.00  0.00    +0.000 C 
ATOM      9  C8  UNL     1       6.798  83.264  71.294  0.00  0.00    +0.000 C 
ATOM     10  C9  UNL     1       6.516  84.476  69.100  0.00  0.00    +0.000 C 
ENDROOT
TORSDOF 0
ENDMDL
MODEL 7
REMARK VINA RESULT:      -4.0      7.176      9.071
REMARK  Name = .\Carvone.pdb
REMARK  3 active torsions:
REMARK  status: ('A' for Active; 'I' for Inactive)
REMARK    1  A    between atoms: C1_1  and  C2_2
REMARK    2  A    between atoms: C7_8  and  C8_9
REMARK    3  A    between atoms: C7_8  and  C9_10
REMARK                            x       y       z     vdW  Elec       q    Type
REMARK                         _______ _______ _______ _____ _____    ______ ____
ROOT
ATOM      1  C1  UNL     1       8.694  68.126  69.498  0.00  0.00    +0.000 C 
ATOM      2  C2  UNL     1       8.397  68.064  68.019  0.00  0.00    +0.000 C 
ATOM      3  C3  UNL     1       7.911  69.173  67.441  0.00  0.00    +0.000 C 
ATOM      4  C4  UNL     1       7.593  69.209  66.013  0.00  0.00    +0.000 C 
ATOM      5  O1  UNL     1       7.138  70.262  65.492  0.00  0.00    +0.000 OA
ATOM      6  C5  UNL     1       7.805  68.019  65.194  0.00  0.00    +0.000 C 
ATOM      7  C6  UNL     1       8.287  66.902  65.739  0.00  0.00    +0.000 C 
ATOM      8  C7  UNL     1       8.646  66.773  67.215  0.00  0.00    +0.000 C 
ATOM      9  C8  UNL     1       7.789  65.631  67.796  0.00  0.00    +0.000 C 
ATOM     10  C9  UNL     1      10.138  66.396  67.292  0.00  0.00    +0.000 C 
ENDROOT
TORSDOF 0
ENDMDL
MODEL 8
REMARK VINA RESULT:      -4.0      2.621      4.448
REMARK  Name = .\Carvone.pdb
REMARK  3 active torsions:
REMARK  status: ('A' for Active; 'I' for Inactive)
REMARK    1  A    between atoms: C1_1  and  C2_2
REMARK    2  A    between atoms: C7_8  and  C8_9
REMARK    3  A    between atoms: C7_8  and  C9_10
REMARK                            x       y       z     vdW  Elec       q    Type
REMARK                         _______ _______ _______ _____ _____    ______ ____
ROOT
ATOM      1  C1  UNL     1      10.191  74.651  61.678  0.00  0.00    +0.000 C 
ATOM      2  C2  UNL     1       9.872  75.692  62.722  0.00  0.00    +0.000 C 
ATOM      3  C3  UNL     1       9.127  75.305  63.770  0.00  0.00    +0.000 C 
ATOM      4  C4  UNL     1       8.765  76.243  64.834  0.00  0.00    +0.000 C 
ATOM      5  O1  UNL     1       8.066  75.857  65.807  0.00  0.00    +0.000 OA
ATOM      6  C5  UNL     1       9.220  77.629  64.761  0.00  0.00    +0.000 C 
ATOM      7  C6  UNL     1       9.961  78.044  63.734  0.00  0.00    +0.000 C 
ATOM      8  C7  UNL     1      10.385  77.139  62.583  0.00  0.00    +0.000 C 
ATOM      9  C8  UNL     1       9.830  77.759  61.285  0.00  0.00    +0.000 C 
ATOM     10  C9  UNL     1      11.925  77.137  62.544  0.00  0.00    +0.000 C 
ENDROOT
TORSDOF 0
ENDMDL
MODEL 9
REMARK VINA RESULT:      -3.9      6.599      8.198
REMARK  Name = .\Carvone.pdb
REMARK  3 active torsions:
REMARK  status: ('A' for Active; 'I' for Inactive)
REMARK    1  A    between atoms: C1_1  and  C2_2
REMARK    2  A    between atoms: C7_8  and  C8_9
REMARK    3  A    between atoms: C7_8  and  C9_10
REMARK                            x       y       z     vdW  Elec       q    Type
REMARK                         _______ _______ _______ _____ _____    ______ ____
ROOT
ATOM      1  C1  UNL     1       8.030  82.861  69.988  0.00  0.00    +0.000 C 
ATOM      2  C2  UNL     1       6.729  82.994  69.234  0.00  0.00    +0.000 C 
ATOM      3  C3  UNL     1       6.511  84.147  68.582  0.00  0.00    +0.000 C 
ATOM      4  C4  UNL     1       5.279  84.369  67.823  0.00  0.00    +0.000 C 
ATOM      5  O1  UNL     1       5.096  85.458  67.218  0.00  0.00    +0.000 OA
ATOM      6  C5  UNL     1       4.263  83.321  67.770  0.00  0.00    +0.000 C 
ATOM      7  C6  UNL     1       4.450  82.165  68.407  0.00  0.00    +0.000 C 
ATOM      8  C7  UNL     1       5.700  81.847  69.220  0.00  0.00    +0.000 C 
ATOM      9  C8  UNL     1       5.244  81.547  70.662  0.00  0.00    +0.000 C 
ATOM     10  C9  UNL     1       6.340  80.588  68.603  0.00  0.00    +0.000 C 
ENDROOT
TORSDOF 0
ENDMDL
