MODEL 1
REMARK VINA RESULT:       5.6      0.000      0.000
REMARK  Name = .\Carvacrol.pdb
REMARK  5 active torsions:
REMARK  status: ('A' for Active; 'I' for Inactive)
REMARK    1  A    between atoms: C1_1  and  C2_2
REMARK    2  A    between atoms: C2_2  and  C3_3
REMARK    3  A    between atoms: C2_2  and  C4_4
REMARK    4  A    between atoms: C6_6  and  O1_11
REMARK    5  A    between atoms: C7_7  and  C10_10
REMARK                            x       y       z     vdW  Elec       q    Type
REMARK                         _______ _______ _______ _____ _____    ______ ____
ROOT
ATOM      1  C4  UNL     1      -5.580  48.465 -33.023  0.00  0.00    +0.000 A 
ATOM      2  C5  UNL     1      -6.000  48.743 -31.711  0.00  0.00    +0.000 A 
ATOM      3  C6  UNL     1      -5.757  49.997 -31.132  0.00  0.00    +0.000 A 
ATOM      4  C7  UNL     1      -5.086  50.991 -31.866  0.00  0.00    +0.000 A 
ATOM      5  C8  UNL     1      -4.666  50.715 -33.177  0.00  0.00    +0.000 A 
ATOM      6  C9  UNL     1      -4.911  49.465 -33.750  0.00  0.00    +0.000 A 
ATOM      7  C10 UNL     1      -4.822  52.337 -31.253  0.00  0.00    +0.000 C 
ENDROOT
BRANCH   1   9
ATOM      8  C1  UNL     1      -7.349  46.903 -33.895  0.00  0.00    +0.000 C 
ATOM      9  C2  UNL     1      -5.852  47.102 -33.633  0.00  0.00    +0.000 C 
ATOM     10  C3  UNL     1      -5.035  46.898 -34.915  0.00  0.00    +0.000 C 
ENDBRANCH   1   9
BRANCH   3  11
ATOM     11  O1  UNL     1      -6.178  50.258 -29.828  0.00  0.00    +0.000 OA
ATOM     12  H14 UNL     1      -5.516  50.393 -29.072  0.00  0.00    +0.000 HD
ENDBRANCH   3  11
TORSDOF 2
ENDMDL
MODEL 2
REMARK VINA RESULT:       7.1      2.028      3.987
REMARK  Name = .\Carvacrol.pdb
REMARK  5 active torsions:
REMARK  status: ('A' for Active; 'I' for Inactive)
REMARK    1  A    between atoms: C1_1  and  C2_2
REMARK    2  A    between atoms: C2_2  and  C3_3
REMARK    3  A    between atoms: C2_2  and  C4_4
REMARK    4  A    between atoms: C6_6  and  O1_11
REMARK    5  A    between atoms: C7_7  and  C10_10
REMARK                            x       y       z     vdW  Elec       q    Type
REMARK                         _______ _______ _______ _____ _____    ______ ____
ROOT
ATOM      1  C4  UNL     1      -5.995  49.690 -31.102  0.00  0.00    +0.000 A 
ATOM      2  C5  UNL     1      -6.256  48.512 -31.822  0.00  0.00    +0.000 A 
ATOM      3  C6  UNL     1      -5.701  48.313 -33.094  0.00  0.00    +0.000 A 
ATOM      4  C7  UNL     1      -4.874  49.298 -33.662  0.00  0.00    +0.000 A 
ATOM      5  C8  UNL     1      -4.612  50.476 -32.944  0.00  0.00    +0.000 A 
ATOM      6  C9  UNL     1      -5.166  50.670 -31.677  0.00  0.00    +0.000 A 
ATOM      7  C10 UNL     1      -4.276  49.092 -35.024  0.00  0.00    +0.000 C 
ENDROOT
BRANCH   1   9
ATOM      8  C1  UNL     1      -7.442  51.172 -29.673  0.00  0.00    +0.000 C 
ATOM      9  C2  UNL     1      -6.604  49.889 -29.726  0.00  0.00    +0.000 C 
ATOM     10  C3  UNL     1      -7.433  48.670 -29.306  0.00  0.00    +0.000 C 
ENDBRANCH   1   9
BRANCH   3  11
ATOM     11  O1  UNL     1      -5.970  47.139 -33.798  0.00  0.00    +0.000 OA
ATOM     12  H14 UNL     1      -6.891  46.717 -33.795  0.00  0.00    +0.000 HD
ENDBRANCH   3  11
TORSDOF 2
ENDMDL
MODEL 3
REMARK VINA RESULT:       8.3      1.349      2.037
REMARK  Name = .\Carvacrol.pdb
REMARK  5 active torsions:
REMARK  status: ('A' for Active; 'I' for Inactive)
REMARK    1  A    between atoms: C1_1  and  C2_2
REMARK    2  A    between atoms: C2_2  and  C3_3
REMARK    3  A    between atoms: C2_2  and  C4_4
REMARK    4  A    between atoms: C6_6  and  O1_11
REMARK    5  A    between atoms: C7_7  and  C10_10
REMARK                            x       y       z     vdW  Elec       q    Type
REMARK                         _______ _______ _______ _____ _____    ______ ____
ROOT
ATOM      1  C4  UNL     1      -5.961  48.064 -32.688  0.00  0.00    +0.000 A 
ATOM      2  C5  UNL     1      -5.214  49.219 -32.975  0.00  0.00    +0.000 A 
ATOM      3  C6  UNL     1      -5.199  50.302 -32.084  0.00  0.00    +0.000 A 
ATOM      4  C7  UNL     1      -5.937  50.239 -30.889  0.00  0.00    +0.000 A 
ATOM      5  C8  UNL     1      -6.684  49.086 -30.601  0.00  0.00    +0.000 A 
ATOM      6  C9  UNL     1      -6.696  48.010 -31.491  0.00  0.00    +0.000 A 
ATOM      7  C10 UNL     1      -5.926  51.395 -29.930  0.00  0.00    +0.000 C 
ENDROOT
BRANCH   1   9
ATOM      8  C1  UNL     1      -7.244  46.898 -34.511  0.00  0.00    +0.000 C 
ATOM      9  C2  UNL     1      -5.966  46.902 -33.664  0.00  0.00    +0.000 C 
ATOM     10  C3  UNL     1      -4.715  46.918 -34.551  0.00  0.00    +0.000 C 
ENDBRANCH   1   9
BRANCH   3  11
ATOM     11  O1  UNL     1      -4.452  51.442 -32.383  0.00  0.00    +0.000 OA
ATOM     12  H14 UNL     1      -4.138  51.640 -33.326  0.00  0.00    +0.000 HD
ENDBRANCH   3  11
TORSDOF 2
ENDMDL
