MODEL 1
REMARK VINA RESULT:      -5.0      0.000      0.000
REMARK  Name = .\Carvacrol.pdb
REMARK  5 active torsions:
REMARK  status: ('A' for Active; 'I' for Inactive)
REMARK    1  A    between atoms: C1_1  and  C2_2
REMARK    2  A    between atoms: C2_2  and  C3_3
REMARK    3  A    between atoms: C2_2  and  C4_4
REMARK    4  A    between atoms: C6_6  and  O1_11
REMARK    5  A    between atoms: C7_7  and  C10_10
REMARK                            x       y       z     vdW  Elec       q    Type
REMARK                         _______ _______ _______ _____ _____    ______ ____
ROOT
ATOM      1  C4  UNL     1       1.193  39.302  39.597  0.00  0.00    +0.000 A 
ATOM      2  C5  UNL     1       0.550  38.053  39.641  0.00  0.00    +0.000 A 
ATOM      3  C6  UNL     1       1.227  36.885  39.261  0.00  0.00    +0.000 A 
ATOM      4  C7  UNL     1       2.563  36.957  38.830  0.00  0.00    +0.000 A 
ATOM      5  C8  UNL     1       3.207  38.203  38.786  0.00  0.00    +0.000 A 
ATOM      6  C9  UNL     1       2.530  39.364  39.166  0.00  0.00    +0.000 A 
ATOM      7  C10 UNL     1       3.294  35.710  38.421  0.00  0.00    +0.000 C 
ENDROOT
BRANCH   1   9
ATOM      8  C1  UNL     1       0.336  41.545  38.846  0.00  0.00    +0.000 C 
ATOM      9  C2  UNL     1       0.446  40.556  40.012  0.00  0.00    +0.000 C 
ATOM     10  C3  UNL     1      -0.937  40.213  40.579  0.00  0.00    +0.000 C 
ENDBRANCH   1   9
BRANCH   3  11
ATOM     11  O1  UNL     1       0.574  35.653  39.308  0.00  0.00    +0.000 OA
ATOM     12  H14 UNL     1      -0.127  35.396  38.623  0.00  0.00    +0.000 HD
ENDBRANCH   3  11
TORSDOF 2
ENDMDL
MODEL 2
REMARK VINA RESULT:      -4.8      1.867      4.925
REMARK  Name = .\Carvacrol.pdb
REMARK  5 active torsions:
REMARK  status: ('A' for Active; 'I' for Inactive)
REMARK    1  A    between atoms: C1_1  and  C2_2
REMARK    2  A    between atoms: C2_2  and  C3_3
REMARK    3  A    between atoms: C2_2  and  C4_4
REMARK    4  A    between atoms: C6_6  and  O1_11
REMARK    5  A    between atoms: C7_7  and  C10_10
REMARK                            x       y       z     vdW  Elec       q    Type
REMARK                         _______ _______ _______ _____ _____    ______ ____
ROOT
ATOM      1  C4  UNL     1       2.817  36.420  38.720  0.00  0.00    +0.000 A 
ATOM      2  C5  UNL     1       3.107  37.782  38.908  0.00  0.00    +0.000 A 
ATOM      3  C6  UNL     1       2.122  38.667  39.371  0.00  0.00    +0.000 A 
ATOM      4  C7  UNL     1       0.829  38.193  39.652  0.00  0.00    +0.000 A 
ATOM      5  C8  UNL     1       0.537  36.833  39.465  0.00  0.00    +0.000 A 
ATOM      6  C9  UNL     1       1.521  35.955  39.004  0.00  0.00    +0.000 A 
ATOM      7  C10 UNL     1      -0.231  39.135  40.148  0.00  0.00    +0.000 C 
ENDROOT
BRANCH   1   9
ATOM      8  C1  UNL     1       4.716  34.908  39.381  0.00  0.00    +0.000 C 
ATOM      9  C2  UNL     1       3.894  35.476  38.218  0.00  0.00    +0.000 C 
ATOM     10  C3  UNL     1       3.292  34.353  37.366  0.00  0.00    +0.000 C 
ENDBRANCH   1   9
BRANCH   3  11
ATOM     11  O1  UNL     1       2.425  40.017  39.551  0.00  0.00    +0.000 OA
ATOM     12  H14 UNL     1       3.067  40.325  40.273  0.00  0.00    +0.000 HD
ENDBRANCH   3  11
TORSDOF 2
ENDMDL
MODEL 3
REMARK VINA RESULT:      -4.6      2.262      4.768
REMARK  Name = .\Carvacrol.pdb
REMARK  5 active torsions:
REMARK  status: ('A' for Active; 'I' for Inactive)
REMARK    1  A    between atoms: C1_1  and  C2_2
REMARK    2  A    between atoms: C2_2  and  C3_3
REMARK    3  A    between atoms: C2_2  and  C4_4
REMARK    4  A    between atoms: C6_6  and  O1_11
REMARK    5  A    between atoms: C7_7  and  C10_10
REMARK                            x       y       z     vdW  Elec       q    Type
REMARK                         _______ _______ _______ _____ _____    ______ ____
ROOT
ATOM      1  C4  UNL     1       2.289  38.602  39.331  0.00  0.00    +0.000 A 
ATOM      2  C5  UNL     1       2.508  39.987  39.236  0.00  0.00    +0.000 A 
ATOM      3  C6  UNL     1       1.467  40.895  39.477  0.00  0.00    +0.000 A 
ATOM      4  C7  UNL     1       0.187  40.422  39.817  0.00  0.00    +0.000 A 
ATOM      5  C8  UNL     1      -0.034  39.039  39.912  0.00  0.00    +0.000 A 
ATOM      6  C9  UNL     1       1.006  38.138  39.671  0.00  0.00    +0.000 A 
ATOM      7  C10 UNL     1      -0.933  41.388  40.076  0.00  0.00    +0.000 C 
ENDROOT
BRANCH   1   9
ATOM      8  C1  UNL     1       3.582  36.636  40.221  0.00  0.00    +0.000 C 
ATOM      9  C2  UNL     1       3.427  37.633  39.067  0.00  0.00    +0.000 C 
ATOM     10  C3  UNL     1       3.236  36.907  37.730  0.00  0.00    +0.000 C 
ENDBRANCH   1   9
BRANCH   3  11
ATOM     11  O1  UNL     1       1.700  42.267  39.379  0.00  0.00    +0.000 OA
ATOM     12  H14 UNL     1       2.489  42.706  39.840  0.00  0.00    +0.000 HD
ENDBRANCH   3  11
TORSDOF 2
ENDMDL
MODEL 4
REMARK VINA RESULT:      -4.5      1.490      4.236
REMARK  Name = .\Carvacrol.pdb
REMARK  5 active torsions:
REMARK  status: ('A' for Active; 'I' for Inactive)
REMARK    1  A    between atoms: C1_1  and  C2_2
REMARK    2  A    between atoms: C2_2  and  C3_3
REMARK    3  A    between atoms: C2_2  and  C4_4
REMARK    4  A    between atoms: C6_6  and  O1_11
REMARK    5  A    between atoms: C7_7  and  C10_10
REMARK                            x       y       z     vdW  Elec       q    Type
REMARK                         _______ _______ _______ _____ _____    ______ ____
ROOT
ATOM      1  C4  UNL     1       1.978  37.141  39.053  0.00  0.00    +0.000 A 
ATOM      2  C5  UNL     1       0.684  37.461  39.498  0.00  0.00    +0.000 A 
ATOM      3  C6  UNL     1       0.332  38.789  39.780  0.00  0.00    +0.000 A 
ATOM      4  C7  UNL     1       1.279  39.816  39.618  0.00  0.00    +0.000 A 
ATOM      5  C8  UNL     1       2.572  39.498  39.174  0.00  0.00    +0.000 A 
ATOM      6  C9  UNL     1       2.918  38.174  38.894  0.00  0.00    +0.000 A 
ATOM      7  C10 UNL     1       0.909  41.241  39.919  0.00  0.00    +0.000 C 
ENDROOT
BRANCH   1   9
ATOM      8  C1  UNL     1       2.562  35.486  37.250  0.00  0.00    +0.000 C 
ATOM      9  C2  UNL     1       2.342  35.699  38.753  0.00  0.00    +0.000 C 
ATOM     10  C3  UNL     1       3.571  35.259  39.558  0.00  0.00    +0.000 C 
ENDBRANCH   1   9
BRANCH   3  11
ATOM     11  O1  UNL     1      -0.956  39.092  40.221  0.00  0.00    +0.000 OA
ATOM     12  H14 UNL     1      -1.116  39.693  41.021  0.00  0.00    +0.000 HD
ENDBRANCH   3  11
TORSDOF 2
ENDMDL
MODEL 5
REMARK VINA RESULT:      -4.4      1.631      2.418
REMARK  Name = .\Carvacrol.pdb
REMARK  5 active torsions:
REMARK  status: ('A' for Active; 'I' for Inactive)
REMARK    1  A    between atoms: C1_1  and  C2_2
REMARK    2  A    between atoms: C2_2  and  C3_3
REMARK    3  A    between atoms: C2_2  and  C4_4
REMARK    4  A    between atoms: C6_6  and  O1_11
REMARK    5  A    between atoms: C7_7  and  C10_10
REMARK                            x       y       z     vdW  Elec       q    Type
REMARK                         _______ _______ _______ _____ _____    ______ ____
ROOT
ATOM      1  C4  UNL     1       0.450  39.065  39.850  0.00  0.00    +0.000 A 
ATOM      2  C5  UNL     1       1.764  39.494  39.599  0.00  0.00    +0.000 A 
ATOM      3  C6  UNL     1       2.736  38.595  39.135  0.00  0.00    +0.000 A 
ATOM      4  C7  UNL     1       2.398  37.247  38.919  0.00  0.00    +0.000 A 
ATOM      5  C8  UNL     1       1.086  36.816  39.170  0.00  0.00    +0.000 A 
ATOM      6  C9  UNL     1       0.122  37.715  39.631  0.00  0.00    +0.000 A 
ATOM      7  C10 UNL     1       3.433  36.278  38.423  0.00  0.00    +0.000 C 
ENDROOT
BRANCH   1   9
ATOM      8  C1  UNL     1      -0.487  40.237  41.870  0.00  0.00    +0.000 C 
ATOM      9  C2  UNL     1      -0.588  40.052  40.351  0.00  0.00    +0.000 C 
ATOM     10  C3  UNL     1      -0.471  41.395  39.621  0.00  0.00    +0.000 C 
ENDBRANCH   1   9
BRANCH   3  11
ATOM     11  O1  UNL     1       4.036  39.036  38.891  0.00  0.00    +0.000 OA
ATOM     12  H14 UNL     1       4.663  38.529  38.276  0.00  0.00    +0.000 HD
ENDBRANCH   3  11
TORSDOF 2
ENDMDL
MODEL 6
REMARK VINA RESULT:      -4.4      1.415      1.994
REMARK  Name = .\Carvacrol.pdb
REMARK  5 active torsions:
REMARK  status: ('A' for Active; 'I' for Inactive)
REMARK    1  A    between atoms: C1_1  and  C2_2
REMARK    2  A    between atoms: C2_2  and  C3_3
REMARK    3  A    between atoms: C2_2  and  C4_4
REMARK    4  A    between atoms: C6_6  and  O1_11
REMARK    5  A    between atoms: C7_7  and  C10_10
REMARK                            x       y       z     vdW  Elec       q    Type
REMARK                         _______ _______ _______ _____ _____    ______ ____
ROOT
ATOM      1  C4  UNL     1       0.818  39.193  39.917  0.00  0.00    +0.000 A 
ATOM      2  C5  UNL     1       2.212  39.016  39.953  0.00  0.00    +0.000 A 
ATOM      3  C6  UNL     1       2.782  37.764  39.681  0.00  0.00    +0.000 A 
ATOM      4  C7  UNL     1       1.957  36.670  39.369  0.00  0.00    +0.000 A 
ATOM      5  C8  UNL     1       0.565  36.844  39.333  0.00  0.00    +0.000 A 
ATOM      6  C9  UNL     1       0.001  38.093  39.604  0.00  0.00    +0.000 A 
ATOM      7  C10 UNL     1       2.561  35.326  39.076  0.00  0.00    +0.000 C 
ENDROOT
BRANCH   1   9
ATOM      8  C1  UNL     1       0.296  41.472  38.988  0.00  0.00    +0.000 C 
ATOM      9  C2  UNL     1       0.218  40.555  40.214  0.00  0.00    +0.000 C 
ATOM     10  C3  UNL     1      -1.225  40.425  40.717  0.00  0.00    +0.000 C 
ENDBRANCH   1   9
BRANCH   3  11
ATOM     11  O1  UNL     1       4.168  37.604  39.720  0.00  0.00    +0.000 OA
ATOM     12  H14 UNL     1       4.661  37.064  39.019  0.00  0.00    +0.000 HD
ENDBRANCH   3  11
TORSDOF 2
ENDMDL
MODEL 7
REMARK VINA RESULT:      -4.3      2.339      4.796
REMARK  Name = .\Carvacrol.pdb
REMARK  5 active torsions:
REMARK  status: ('A' for Active; 'I' for Inactive)
REMARK    1  A    between atoms: C1_1  and  C2_2
REMARK    2  A    between atoms: C2_2  and  C3_3
REMARK    3  A    between atoms: C2_2  and  C4_4
REMARK    4  A    between atoms: C6_6  and  O1_11
REMARK    5  A    between atoms: C7_7  and  C10_10
REMARK                            x       y       z     vdW  Elec       q    Type
REMARK                         _______ _______ _______ _____ _____    ______ ____
ROOT
ATOM      1  C4  UNL     1       1.208  38.126  40.408  0.00  0.00    +0.000 A 
ATOM      2  C5  UNL     1       1.441  38.711  41.664  0.00  0.00    +0.000 A 
ATOM      3  C6  UNL     1       0.597  39.719  42.152  0.00  0.00    +0.000 A 
ATOM      4  C7  UNL     1      -0.495  40.155  41.382  0.00  0.00    +0.000 A 
ATOM      5  C8  UNL     1      -0.730  39.572  40.127  0.00  0.00    +0.000 A 
ATOM      6  C9  UNL     1       0.113  38.568  39.644  0.00  0.00    +0.000 A 
ATOM      7  C10 UNL     1      -1.403  41.234  41.898  0.00  0.00    +0.000 C 
ENDROOT
BRANCH   1   9
ATOM      8  C1  UNL     1       1.355  35.994  39.080  0.00  0.00    +0.000 C 
ATOM      9  C2  UNL     1       2.131  37.036  39.895  0.00  0.00    +0.000 C 
ATOM     10  C3  UNL     1       3.286  37.628  39.078  0.00  0.00    +0.000 C 
ENDBRANCH   1   9
BRANCH   3  11
ATOM     11  O1  UNL     1       0.841  40.291  43.401  0.00  0.00    +0.000 OA
ATOM     12  H14 UNL     1       0.500  39.866  44.256  0.00  0.00    +0.000 HD
ENDBRANCH   3  11
TORSDOF 2
ENDMDL
MODEL 8
REMARK VINA RESULT:      -4.2      2.425      3.329
REMARK  Name = .\Carvacrol.pdb
REMARK  5 active torsions:
REMARK  status: ('A' for Active; 'I' for Inactive)
REMARK    1  A    between atoms: C1_1  and  C2_2
REMARK    2  A    between atoms: C2_2  and  C3_3
REMARK    3  A    between atoms: C2_2  and  C4_4
REMARK    4  A    between atoms: C6_6  and  O1_11
REMARK    5  A    between atoms: C7_7  and  C10_10
REMARK                            x       y       z     vdW  Elec       q    Type
REMARK                         _______ _______ _______ _____ _____    ______ ____
ROOT
ATOM      1  C4  UNL     1       3.650  37.127  39.616  0.00  0.00    +0.000 A 
ATOM      2  C5  UNL     1       2.771  37.073  38.520  0.00  0.00    +0.000 A 
ATOM      3  C6  UNL     1       2.715  35.935  37.702  0.00  0.00    +0.000 A 
ATOM      4  C7  UNL     1       3.543  34.833  37.975  0.00  0.00    +0.000 A 
ATOM      5  C8  UNL     1       4.422  34.884  39.068  0.00  0.00    +0.000 A 
ATOM      6  C9  UNL     1       4.475  36.019  39.881  0.00  0.00    +0.000 A 
ATOM      7  C10 UNL     1       3.488  33.611  37.103  0.00  0.00    +0.000 C 
ENDROOT
BRANCH   1   9
ATOM      8  C1  UNL     1       4.308  39.552  39.735  0.00  0.00    +0.000 C 
ATOM      9  C2  UNL     1       3.698  38.365  40.490  0.00  0.00    +0.000 C 
ATOM     10  C3  UNL     1       2.307  38.713  41.035  0.00  0.00    +0.000 C 
ENDBRANCH   1   9
BRANCH   3  11
ATOM     11  O1  UNL     1       1.838  35.897  36.618  0.00  0.00    +0.000 OA
ATOM     12  H14 UNL     1       2.150  36.096  35.674  0.00  0.00    +0.000 HD
ENDBRANCH   3  11
TORSDOF 2
ENDMDL
MODEL 9
REMARK VINA RESULT:      -4.1      2.146      4.404
REMARK  Name = .\Carvacrol.pdb
REMARK  5 active torsions:
REMARK  status: ('A' for Active; 'I' for Inactive)
REMARK    1  A    between atoms: C1_1  and  C2_2
REMARK    2  A    between atoms: C2_2  and  C3_3
REMARK    3  A    between atoms: C2_2  and  C4_4
REMARK    4  A    between atoms: C6_6  and  O1_11
REMARK    5  A    between atoms: C7_7  and  C10_10
REMARK                            x       y       z     vdW  Elec       q    Type
REMARK                         _______ _______ _______ _____ _____    ______ ____
ROOT
ATOM      1  C4  UNL     1       2.236  39.634  39.687  0.00  0.00    +0.000 A 
ATOM      2  C5  UNL     1       1.531  39.202  40.823  0.00  0.00    +0.000 A 
ATOM      3  C6  UNL     1       0.292  39.769  41.155  0.00  0.00    +0.000 A 
ATOM      4  C7  UNL     1      -0.257  40.780  40.347  0.00  0.00    +0.000 A 
ATOM      5  C8  UNL     1       0.445  41.213  39.212  0.00  0.00    +0.000 A 
ATOM      6  C9  UNL     1       1.679  40.646  38.884  0.00  0.00    +0.000 A 
ATOM      7  C10 UNL     1      -1.584  41.391  40.696  0.00  0.00    +0.000 C 
ENDROOT
BRANCH   1   9
ATOM      8  C1  UNL     1       3.558  38.406  37.934  0.00  0.00    +0.000 C 
ATOM      9  C2  UNL     1       3.576  39.010  39.343  0.00  0.00    +0.000 C 
ATOM     10  C3  UNL     1       4.715  40.026  39.494  0.00  0.00    +0.000 C 
ENDBRANCH   1   9
BRANCH   3  11
ATOM     11  O1  UNL     1      -0.396  39.330  42.287  0.00  0.00    +0.000 OA
ATOM     12  H14 UNL     1      -1.401  39.195  42.279  0.00  0.00    +0.000 HD
ENDBRANCH   3  11
TORSDOF 2
ENDMDL
