MODEL 1
REMARK VINA RESULT:      -3.9      0.000      0.000
REMARK  Name = .\Carvone.pdb
REMARK  3 active torsions:
REMARK  status: ('A' for Active; 'I' for Inactive)
REMARK    1  A    between atoms: C1_1  and  C2_2
REMARK    2  A    between atoms: C7_8  and  C8_9
REMARK    3  A    between atoms: C7_8  and  C9_10
REMARK                            x       y       z     vdW  Elec       q    Type
REMARK                         _______ _______ _______ _____ _____    ______ ____
ROOT
ATOM      1  C1  UNL     1     -11.539  39.265  46.621  0.00  0.00    +0.000 C 
ATOM      2  C2  UNL     1     -12.364  38.459  45.648  0.00  0.00    +0.000 C 
ATOM      3  C3  UNL     1     -11.996  38.486  44.357  0.00  0.00    +0.000 C 
ATOM      4  C4  UNL     1     -12.734  37.736  43.340  0.00  0.00    +0.000 C 
ATOM      5  O1  UNL     1     -12.369  37.776  42.135  0.00  0.00    +0.000 OA
ATOM      6  C5  UNL     1     -13.896  36.941  43.728  0.00  0.00    +0.000 C 
ATOM      7  C6  UNL     1     -14.287  36.894  45.002  0.00  0.00    +0.000 C 
ATOM      8  C7  UNL     1     -13.580  37.641  46.127  0.00  0.00    +0.000 C 
ATOM      9  C8  UNL     1     -14.614  38.585  46.770  0.00  0.00    +0.000 C 
ATOM     10  C9  UNL     1     -13.121  36.591  47.157  0.00  0.00    +0.000 C 
ENDROOT
TORSDOF 0
ENDMDL
MODEL 2
REMARK VINA RESULT:      -3.8      5.287      7.226
REMARK  Name = .\Carvone.pdb
REMARK  3 active torsions:
REMARK  status: ('A' for Active; 'I' for Inactive)
REMARK    1  A    between atoms: C1_1  and  C2_2
REMARK    2  A    between atoms: C7_8  and  C8_9
REMARK    3  A    between atoms: C7_8  and  C9_10
REMARK                            x       y       z     vdW  Elec       q    Type
REMARK                         _______ _______ _______ _____ _____    ______ ____
ROOT
ATOM      1  C1  UNL     1     -11.048  32.999  37.868  0.00  0.00    +0.000 C 
ATOM      2  C2  UNL     1     -11.825  33.773  38.905  0.00  0.00    +0.000 C 
ATOM      3  C3  UNL     1     -11.399  35.012  39.196  0.00  0.00    +0.000 C 
ATOM      4  C4  UNL     1     -12.088  35.839  40.188  0.00  0.00    +0.000 C 
ATOM      5  O1  UNL     1     -11.670  36.999  40.445  0.00  0.00    +0.000 OA
ATOM      6  C5  UNL     1     -13.261  35.313  40.879  0.00  0.00    +0.000 C 
ATOM      7  C6  UNL     1     -13.709  34.087  40.612  0.00  0.00    +0.000 C 
ATOM      8  C7  UNL     1     -13.057  33.156  39.597  0.00  0.00    +0.000 C 
ATOM      9  C8  UNL     1     -12.638  31.877  40.349  0.00  0.00    +0.000 C 
ATOM     10  C9  UNL     1     -14.124  32.812  38.539  0.00  0.00    +0.000 C 
ENDROOT
TORSDOF 0
ENDMDL
MODEL 3
REMARK VINA RESULT:      -3.7      0.514      2.552
REMARK  Name = .\Carvone.pdb
REMARK  3 active torsions:
REMARK  status: ('A' for Active; 'I' for Inactive)
REMARK    1  A    between atoms: C1_1  and  C2_2
REMARK    2  A    between atoms: C7_8  and  C8_9
REMARK    3  A    between atoms: C7_8  and  C9_10
REMARK                            x       y       z     vdW  Elec       q    Type
REMARK                         _______ _______ _______ _____ _____    ______ ____
ROOT
ATOM      1  C1  UNL     1     -15.428  36.124  45.551  0.00  0.00    +0.000 C 
ATOM      2  C2  UNL     1     -14.244  36.985  45.182  0.00  0.00    +0.000 C 
ATOM      3  C3  UNL     1     -13.857  36.980  43.897  0.00  0.00    +0.000 C 
ATOM      4  C4  UNL     1     -12.719  37.782  43.443  0.00  0.00    +0.000 C 
ATOM      5  O1  UNL     1     -12.374  37.762  42.232  0.00  0.00    +0.000 OA
ATOM      6  C5  UNL     1     -11.987  38.606  44.400  0.00  0.00    +0.000 C 
ATOM      7  C6  UNL     1     -12.348  38.633  45.683  0.00  0.00    +0.000 C 
ATOM      8  C7  UNL     1     -13.517  37.831  46.245  0.00  0.00    +0.000 C 
ATOM      9  C8  UNL     1     -12.953  36.907  47.342  0.00  0.00    +0.000 C 
ATOM     10  C9  UNL     1     -14.505  38.837  46.867  0.00  0.00    +0.000 C 
ENDROOT
TORSDOF 0
ENDMDL
MODEL 4
REMARK VINA RESULT:      -3.7      1.160      2.644
REMARK  Name = .\Carvone.pdb
REMARK  3 active torsions:
REMARK  status: ('A' for Active; 'I' for Inactive)
REMARK    1  A    between atoms: C1_1  and  C2_2
REMARK    2  A    between atoms: C7_8  and  C8_9
REMARK    3  A    between atoms: C7_8  and  C9_10
REMARK                            x       y       z     vdW  Elec       q    Type
REMARK                         _______ _______ _______ _____ _____    ______ ____
ROOT
ATOM      1  C1  UNL     1     -14.186  37.884  47.838  0.00  0.00    +0.000 C 
ATOM      2  C2  UNL     1     -13.611  37.936  46.443  0.00  0.00    +0.000 C 
ATOM      3  C3  UNL     1     -14.279  37.285  45.477  0.00  0.00    +0.000 C 
ATOM      4  C4  UNL     1     -13.799  37.278  44.094  0.00  0.00    +0.000 C 
ATOM      5  O1  UNL     1     -14.442  36.661  43.205  0.00  0.00    +0.000 OA
ATOM      6  C5  UNL     1     -12.571  37.989  43.751  0.00  0.00    +0.000 C 
ATOM      7  C6  UNL     1     -11.886  38.646  44.687  0.00  0.00    +0.000 C 
ATOM      8  C7  UNL     1     -12.309  38.707  46.151  0.00  0.00    +0.000 C 
ATOM      9  C8  UNL     1     -11.159  38.112  46.986  0.00  0.00    +0.000 C 
ATOM     10  C9  UNL     1     -12.499  40.194  46.510  0.00  0.00    +0.000 C 
ENDROOT
TORSDOF 0
ENDMDL
MODEL 5
REMARK VINA RESULT:      -3.7      0.940      1.063
REMARK  Name = .\Carvone.pdb
REMARK  3 active torsions:
REMARK  status: ('A' for Active; 'I' for Inactive)
REMARK    1  A    between atoms: C1_1  and  C2_2
REMARK    2  A    between atoms: C7_8  and  C8_9
REMARK    3  A    between atoms: C7_8  and  C9_10
REMARK                            x       y       z     vdW  Elec       q    Type
REMARK                         _______ _______ _______ _____ _____    ______ ____
ROOT
ATOM      1  C1  UNL     1     -11.450  39.604  45.366  0.00  0.00    +0.000 C 
ATOM      2  C2  UNL     1     -12.503  38.549  45.130  0.00  0.00    +0.000 C 
ATOM      3  C3  UNL     1     -12.627  38.071  43.882  0.00  0.00    +0.000 C 
ATOM      4  C4  UNL     1     -13.619  37.045  43.556  0.00  0.00    +0.000 C 
ATOM      5  O1  UNL     1     -13.717  36.611  42.378  0.00  0.00    +0.000 OA
ATOM      6  C5  UNL     1     -14.495  36.528  44.603  0.00  0.00    +0.000 C 
ATOM      7  C6  UNL     1     -14.397  36.982  45.852  0.00  0.00    +0.000 C 
ATOM      8  C7  UNL     1     -13.395  38.047  46.283  0.00  0.00    +0.000 C 
ATOM      9  C8  UNL     1     -14.200  39.227  46.862  0.00  0.00    +0.000 C 
ATOM     10  C9  UNL     1     -12.513  37.427  47.384  0.00  0.00    +0.000 C 
ENDROOT
TORSDOF 0
ENDMDL
MODEL 6
REMARK VINA RESULT:      -3.6      1.985      3.201
REMARK  Name = .\Carvone.pdb
REMARK  3 active torsions:
REMARK  status: ('A' for Active; 'I' for Inactive)
REMARK    1  A    between atoms: C1_1  and  C2_2
REMARK    2  A    between atoms: C7_8  and  C8_9
REMARK    3  A    between atoms: C7_8  and  C9_10
REMARK                            x       y       z     vdW  Elec       q    Type
REMARK                         _______ _______ _______ _____ _____    ______ ____
ROOT
ATOM      1  C1  UNL     1     -13.530  40.541  48.048  0.00  0.00    +0.000 C 
ATOM      2  C2  UNL     1     -13.455  39.415  47.046  0.00  0.00    +0.000 C 
ATOM      3  C3  UNL     1     -14.574  38.704  46.834  0.00  0.00    +0.000 C 
ATOM      4  C4  UNL     1     -14.599  37.593  45.881  0.00  0.00    +0.000 C 
ATOM      5  O1  UNL     1     -15.661  36.941  45.698  0.00  0.00    +0.000 OA
ATOM      6  C5  UNL     1     -13.388  37.245  45.144  0.00  0.00    +0.000 C 
ATOM      7  C6  UNL     1     -12.261  37.932  45.332  0.00  0.00    +0.000 C 
ATOM      8  C7  UNL     1     -12.142  39.102  46.302  0.00  0.00    +0.000 C 
ATOM      9  C8  UNL     1     -11.045  38.740  47.323  0.00  0.00    +0.000 C 
ATOM     10  C9  UNL     1     -11.707  40.333  45.483  0.00  0.00    +0.000 C 
ENDROOT
TORSDOF 0
ENDMDL
MODEL 7
REMARK VINA RESULT:      -3.6      5.603      7.312
REMARK  Name = .\Carvone.pdb
REMARK  3 active torsions:
REMARK  status: ('A' for Active; 'I' for Inactive)
REMARK    1  A    between atoms: C1_1  and  C2_2
REMARK    2  A    between atoms: C7_8  and  C8_9
REMARK    3  A    between atoms: C7_8  and  C9_10
REMARK                            x       y       z     vdW  Elec       q    Type
REMARK                         _______ _______ _______ _____ _____    ______ ____
ROOT
ATOM      1  C1  UNL     1     -14.315  33.121  41.374  0.00  0.00    +0.000 C 
ATOM      2  C2  UNL     1     -13.352  33.737  40.389  0.00  0.00    +0.000 C 
ATOM      3  C3  UNL     1     -12.834  34.935  40.702  0.00  0.00    +0.000 C 
ATOM      4  C4  UNL     1     -11.891  35.612  39.810  0.00  0.00    +0.000 C 
ATOM      5  O1  UNL     1     -11.417  36.736  40.124  0.00  0.00    +0.000 OA
ATOM      6  C5  UNL     1     -11.501  34.978  38.554  0.00  0.00    +0.000 C 
ATOM      7  C6  UNL     1     -11.998  33.788  38.215  0.00  0.00    +0.000 C 
ATOM      8  C7  UNL     1     -12.984  33.011  39.080  0.00  0.00    +0.000 C 
ATOM      9  C8  UNL     1     -14.256  32.791  38.238  0.00  0.00    +0.000 C 
ATOM     10  C9  UNL     1     -12.334  31.653  39.408  0.00  0.00    +0.000 C 
ENDROOT
TORSDOF 0
ENDMDL
MODEL 8
REMARK VINA RESULT:      -3.5      2.502      3.516
REMARK  Name = .\Carvone.pdb
REMARK  3 active torsions:
REMARK  status: ('A' for Active; 'I' for Inactive)
REMARK    1  A    between atoms: C1_1  and  C2_2
REMARK    2  A    between atoms: C7_8  and  C8_9
REMARK    3  A    between atoms: C7_8  and  C9_10
REMARK                            x       y       z     vdW  Elec       q    Type
REMARK                         _______ _______ _______ _____ _____    ______ ____
ROOT
ATOM      1  C1  UNL     1     -11.528  40.159  45.884  0.00  0.00    +0.000 C 
ATOM      2  C2  UNL     1     -12.808  39.423  46.196  0.00  0.00    +0.000 C 
ATOM      3  C3  UNL     1     -13.756  40.095  46.870  0.00  0.00    +0.000 C 
ATOM      4  C4  UNL     1     -15.031  39.465  47.218  0.00  0.00    +0.000 C 
ATOM      5  O1  UNL     1     -15.905  40.115  47.850  0.00  0.00    +0.000 OA
ATOM      6  C5  UNL     1     -15.284  38.081  46.829  0.00  0.00    +0.000 C 
ATOM      7  C6  UNL     1     -14.364  37.388  46.159  0.00  0.00    +0.000 C 
ATOM      8  C7  UNL     1     -13.010  37.960  45.755  0.00  0.00    +0.000 C 
ATOM      9  C8  UNL     1     -11.926  37.074  46.400  0.00  0.00    +0.000 C 
ATOM     10  C9  UNL     1     -12.913  37.867  44.220  0.00  0.00    +0.000 C 
ENDROOT
TORSDOF 0
ENDMDL
MODEL 9
REMARK VINA RESULT:      -3.3      2.496      4.018
REMARK  Name = .\Carvone.pdb
REMARK  3 active torsions:
REMARK  status: ('A' for Active; 'I' for Inactive)
REMARK    1  A    between atoms: C1_1  and  C2_2
REMARK    2  A    between atoms: C7_8  and  C8_9
REMARK    3  A    between atoms: C7_8  and  C9_10
REMARK                            x       y       z     vdW  Elec       q    Type
REMARK                         _______ _______ _______ _____ _____    ______ ____
ROOT
ATOM      1  C1  UNL     1     -14.890  36.394  45.618  0.00  0.00    +0.000 C 
ATOM      2  C2  UNL     1     -14.321  37.714  46.076  0.00  0.00    +0.000 C 
ATOM      3  C3  UNL     1     -15.142  38.539  46.747  0.00  0.00    +0.000 C 
ATOM      4  C4  UNL     1     -14.681  39.841  47.231  0.00  0.00    +0.000 C 
ATOM      5  O1  UNL     1     -15.468  40.598  47.858  0.00  0.00    +0.000 OA
ATOM      6  C5  UNL     1     -13.304  40.259  46.984  0.00  0.00    +0.000 C 
ATOM      7  C6  UNL     1     -12.465  39.462  46.322  0.00  0.00    +0.000 C 
ATOM      8  C7  UNL     1     -12.856  38.092  45.781  0.00  0.00    +0.000 C 
ATOM      9  C8  UNL     1     -12.628  38.119  44.257  0.00  0.00    +0.000 C 
ATOM     10  C9  UNL     1     -11.917  37.057  46.431  0.00  0.00    +0.000 C 
ENDROOT
TORSDOF 0
ENDMDL
