MODEL 1
REMARK VINA RESULT:      -4.1      0.000      0.000
REMARK  Name = .\Carvone.pdb
REMARK  3 active torsions:
REMARK  status: ('A' for Active; 'I' for Inactive)
REMARK    1  A    between atoms: C1_1  and  C2_2
REMARK    2  A    between atoms: C7_8  and  C8_9
REMARK    3  A    between atoms: C7_8  and  C9_10
REMARK                            x       y       z     vdW  Elec       q    Type
REMARK                         _______ _______ _______ _____ _____    ______ ____
ROOT
ATOM      1  C1  UNL     1       4.795  62.251  29.735  0.00  0.00    +0.000 C 
ATOM      2  C2  UNL     1       5.262  61.004  30.445  0.00  0.00    +0.000 C 
ATOM      3  C3  UNL     1       4.813  59.827  29.982  0.00  0.00    +0.000 C 
ATOM      4  C4  UNL     1       5.211  58.563  30.606  0.00  0.00    +0.000 C 
ATOM      5  O1  UNL     1       4.777  57.471  30.154  0.00  0.00    +0.000 OA
ATOM      6  C5  UNL     1       6.113  58.575  31.753  0.00  0.00    +0.000 C 
ATOM      7  C6  UNL     1       6.577  59.728  32.236  0.00  0.00    +0.000 C 
ATOM      8  C7  UNL     1       6.217  61.090  31.652  0.00  0.00    +0.000 C 
ATOM      9  C8  UNL     1       5.553  61.909  32.776  0.00  0.00    +0.000 C 
ATOM     10  C9  UNL     1       7.533  61.766  31.221  0.00  0.00    +0.000 C 
ENDROOT
TORSDOF 0
ENDMDL
MODEL 2
REMARK VINA RESULT:      -3.7      1.276      2.617
REMARK  Name = .\Carvone.pdb
REMARK  3 active torsions:
REMARK  status: ('A' for Active; 'I' for Inactive)
REMARK    1  A    between atoms: C1_1  and  C2_2
REMARK    2  A    between atoms: C7_8  and  C8_9
REMARK    3  A    between atoms: C7_8  and  C9_10
REMARK                            x       y       z     vdW  Elec       q    Type
REMARK                         _______ _______ _______ _____ _____    ______ ____
ROOT
ATOM      1  C1  UNL     1       8.843  60.610  31.200  0.00  0.00    +0.000 C 
ATOM      2  C2  UNL     1       7.406  60.415  30.780  0.00  0.00    +0.000 C 
ATOM      3  C3  UNL     1       6.937  59.157  30.759  0.00  0.00    +0.000 C 
ATOM      4  C4  UNL     1       5.557  58.868  30.366  0.00  0.00    +0.000 C 
ATOM      5  O1  UNL     1       5.138  57.681  30.354  0.00  0.00    +0.000 OA
ATOM      6  C5  UNL     1       4.668  59.963  29.987  0.00  0.00    +0.000 C 
ATOM      7  C6  UNL     1       5.104  61.222  29.999  0.00  0.00    +0.000 C 
ATOM      8  C7  UNL     1       6.523  61.617  30.393  0.00  0.00    +0.000 C 
ATOM      9  C8  UNL     1       7.147  62.348  29.188  0.00  0.00    +0.000 C 
ATOM     10  C9  UNL     1       6.414  62.582  31.590  0.00  0.00    +0.000 C 
ENDROOT
TORSDOF 0
ENDMDL
MODEL 3
REMARK VINA RESULT:      -3.7      1.067      2.577
REMARK  Name = .\Carvone.pdb
REMARK  3 active torsions:
REMARK  status: ('A' for Active; 'I' for Inactive)
REMARK    1  A    between atoms: C1_1  and  C2_2
REMARK    2  A    between atoms: C7_8  and  C8_9
REMARK    3  A    between atoms: C7_8  and  C9_10
REMARK                            x       y       z     vdW  Elec       q    Type
REMARK                         _______ _______ _______ _____ _____    ______ ____
ROOT
ATOM      1  C1  UNL     1       7.298  62.157  32.244  0.00  0.00    +0.000 C 
ATOM      2  C2  UNL     1       6.479  61.066  31.599  0.00  0.00    +0.000 C 
ATOM      3  C3  UNL     1       6.613  59.824  32.089  0.00  0.00    +0.000 C 
ATOM      4  C4  UNL     1       5.860  58.700  31.530  0.00  0.00    +0.000 C 
ATOM      5  O1  UNL     1       6.002  57.543  32.006  0.00  0.00    +0.000 OA
ATOM      6  C5  UNL     1       4.943  58.927  30.416  0.00  0.00    +0.000 C 
ATOM      7  C6  UNL     1       4.787  60.149  29.907  0.00  0.00    +0.000 C 
ATOM      8  C7  UNL     1       5.529  61.376  30.425  0.00  0.00    +0.000 C 
ATOM      9  C8  UNL     1       6.338  61.954  29.247  0.00  0.00    +0.000 C 
ATOM     10  C9  UNL     1       4.466  62.396  30.878  0.00  0.00    +0.000 C 
ENDROOT
TORSDOF 0
ENDMDL
MODEL 4
REMARK VINA RESULT:      -3.6      1.525      2.890
REMARK  Name = .\Carvone.pdb
REMARK  3 active torsions:
REMARK  status: ('A' for Active; 'I' for Inactive)
REMARK    1  A    between atoms: C1_1  and  C2_2
REMARK    2  A    between atoms: C7_8  and  C8_9
REMARK    3  A    between atoms: C7_8  and  C9_10
REMARK                            x       y       z     vdW  Elec       q    Type
REMARK                         _______ _______ _______ _____ _____    ______ ____
ROOT
ATOM      1  C1  UNL     1       9.140  59.511  30.719  0.00  0.00    +0.000 C 
ATOM      2  C2  UNL     1       7.735  60.038  30.552  0.00  0.00    +0.000 C 
ATOM      3  C3  UNL     1       6.740  59.138  30.518  0.00  0.00    +0.000 C 
ATOM      4  C4  UNL     1       5.345  59.553  30.360  0.00  0.00    +0.000 C 
ATOM      5  O1  UNL     1       4.428  58.691  30.331  0.00  0.00    +0.000 OA
ATOM      6  C5  UNL     1       5.022  60.971  30.237  0.00  0.00    +0.000 C 
ATOM      7  C6  UNL     1       5.988  61.889  30.268  0.00  0.00    +0.000 C 
ATOM      8  C7  UNL     1       7.466  61.550  30.428  0.00  0.00    +0.000 C 
ATOM      9  C8  UNL     1       8.200  62.104  29.191  0.00  0.00    +0.000 C 
ATOM     10  C9  UNL     1       7.965  62.269  31.696  0.00  0.00    +0.000 C 
ENDROOT
TORSDOF 0
ENDMDL
MODEL 5
REMARK VINA RESULT:      -3.3      1.918      3.258
REMARK  Name = .\Carvone.pdb
REMARK  3 active torsions:
REMARK  status: ('A' for Active; 'I' for Inactive)
REMARK    1  A    between atoms: C1_1  and  C2_2
REMARK    2  A    between atoms: C7_8  and  C8_9
REMARK    3  A    between atoms: C7_8  and  C9_10
REMARK                            x       y       z     vdW  Elec       q    Type
REMARK                         _______ _______ _______ _____ _____    ______ ____
ROOT
ATOM      1  C1  UNL     1       5.499  58.488  30.477  0.00  0.00    +0.000 C 
ATOM      2  C2  UNL     1       5.176  59.960  30.398  0.00  0.00    +0.000 C 
ATOM      3  C3  UNL     1       3.983  60.302  29.886  0.00  0.00    +0.000 C 
ATOM      4  C4  UNL     1       3.580  61.704  29.768  0.00  0.00    +0.000 C 
ATOM      5  O1  UNL     1       2.455  62.001  29.285  0.00  0.00    +0.000 OA
ATOM      6  C5  UNL     1       4.487  62.758  30.213  0.00  0.00    +0.000 C 
ATOM      7  C6  UNL     1       5.679  62.451  30.726  0.00  0.00    +0.000 C 
ATOM      8  C7  UNL     1       6.182  61.021  30.887  0.00  0.00    +0.000 C 
ATOM      9  C8  UNL     1       7.489  60.902  30.079  0.00  0.00    +0.000 C 
ATOM     10  C9  UNL     1       6.473  60.803  32.384  0.00  0.00    +0.000 C 
ENDROOT
TORSDOF 0
ENDMDL
MODEL 6
REMARK VINA RESULT:      -3.3      2.493      3.747
REMARK  Name = .\Carvone.pdb
REMARK  3 active torsions:
REMARK  status: ('A' for Active; 'I' for Inactive)
REMARK    1  A    between atoms: C1_1  and  C2_2
REMARK    2  A    between atoms: C7_8  and  C8_9
REMARK    3  A    between atoms: C7_8  and  C9_10
REMARK                            x       y       z     vdW  Elec       q    Type
REMARK                         _______ _______ _______ _____ _____    ______ ____
ROOT
ATOM      1  C1  UNL     1       5.346  61.755  32.717  0.00  0.00    +0.000 C 
ATOM      2  C2  UNL     1       6.521  61.150  31.989  0.00  0.00    +0.000 C 
ATOM      3  C3  UNL     1       7.679  61.828  32.018  0.00  0.00    +0.000 C 
ATOM      4  C4  UNL     1       8.874  61.321  31.342  0.00  0.00    +0.000 C 
ATOM      5  O1  UNL     1       9.950  61.974  31.383  0.00  0.00    +0.000 OA
ATOM      6  C5  UNL     1       8.814  60.053  30.620  0.00  0.00    +0.000 C 
ATOM      7  C6  UNL     1       7.679  59.356  30.573  0.00  0.00    +0.000 C 
ATOM      8  C7  UNL     1       6.387  59.806  31.246  0.00  0.00    +0.000 C 
ATOM      9  C8  UNL     1       5.316  59.931  30.145  0.00  0.00    +0.000 C 
ATOM     10  C9  UNL     1       5.982  58.704  32.244  0.00  0.00    +0.000 C 
ENDROOT
TORSDOF 0
ENDMDL
MODEL 7
REMARK VINA RESULT:      -3.3      2.260      3.588
REMARK  Name = .\Carvone.pdb
REMARK  3 active torsions:
REMARK  status: ('A' for Active; 'I' for Inactive)
REMARK    1  A    between atoms: C1_1  and  C2_2
REMARK    2  A    between atoms: C7_8  and  C8_9
REMARK    3  A    between atoms: C7_8  and  C9_10
REMARK                            x       y       z     vdW  Elec       q    Type
REMARK                         _______ _______ _______ _____ _____    ______ ____
ROOT
ATOM      1  C1  UNL     1       6.143  58.476  31.951  0.00  0.00    +0.000 C 
ATOM      2  C2  UNL     1       6.770  59.624  31.198  0.00  0.00    +0.000 C 
ATOM      3  C3  UNL     1       8.054  59.490  30.829  0.00  0.00    +0.000 C 
ATOM      4  C4  UNL     1       8.749  60.550  30.095  0.00  0.00    +0.000 C 
ATOM      5  O1  UNL     1       9.953  60.402  29.759  0.00  0.00    +0.000 OA
ATOM      6  C5  UNL     1       8.039  61.779  29.755  0.00  0.00    +0.000 C 
ATOM      7  C6  UNL     1       6.763  61.942  30.107  0.00  0.00    +0.000 C 
ATOM      8  C7  UNL     1       5.961  60.895  30.871  0.00  0.00    +0.000 C 
ATOM      9  C8  UNL     1       5.482  61.551  32.181  0.00  0.00    +0.000 C 
ATOM     10  C9  UNL     1       4.746  60.522  30.000  0.00  0.00    +0.000 C 
ENDROOT
TORSDOF 0
ENDMDL
MODEL 8
REMARK VINA RESULT:      -3.3      1.809      3.161
REMARK  Name = .\Carvone.pdb
REMARK  3 active torsions:
REMARK  status: ('A' for Active; 'I' for Inactive)
REMARK    1  A    between atoms: C1_1  and  C2_2
REMARK    2  A    between atoms: C7_8  and  C8_9
REMARK    3  A    between atoms: C7_8  and  C9_10
REMARK                            x       y       z     vdW  Elec       q    Type
REMARK                         _______ _______ _______ _____ _____    ______ ____
ROOT
ATOM      1  C1  UNL     1       7.219  59.117  30.827  0.00  0.00    +0.000 C 
ATOM      2  C2  UNL     1       6.383  60.340  30.540  0.00  0.00    +0.000 C 
ATOM      3  C3  UNL     1       5.080  60.148  30.277  0.00  0.00    +0.000 C 
ATOM      4  C4  UNL     1       4.190  61.273  29.987  0.00  0.00    +0.000 C 
ATOM      5  O1  UNL     1       2.971  61.069  29.743  0.00  0.00    +0.000 OA
ATOM      6  C5  UNL     1       4.720  62.633  29.982  0.00  0.00    +0.000 C 
ATOM      7  C6  UNL     1       6.009  62.857  30.241  0.00  0.00    +0.000 C 
ATOM      8  C7  UNL     1       7.008  61.749  30.552  0.00  0.00    +0.000 C 
ATOM      9  C8  UNL     1       8.123  61.826  29.491  0.00  0.00    +0.000 C 
ATOM     10  C9  UNL     1       7.595  62.040  31.947  0.00  0.00    +0.000 C 
ENDROOT
TORSDOF 0
ENDMDL
MODEL 9
REMARK VINA RESULT:      -3.2      2.035      3.121
REMARK  Name = .\Carvone.pdb
REMARK  3 active torsions:
REMARK  status: ('A' for Active; 'I' for Inactive)
REMARK    1  A    between atoms: C1_1  and  C2_2
REMARK    2  A    between atoms: C7_8  and  C8_9
REMARK    3  A    between atoms: C7_8  and  C9_10
REMARK                            x       y       z     vdW  Elec       q    Type
REMARK                         _______ _______ _______ _____ _____    ______ ____
ROOT
ATOM      1  C1  UNL     1       6.957  62.358  32.685  0.00  0.00    +0.000 C 
ATOM      2  C2  UNL     1       6.035  61.741  31.662  0.00  0.00    +0.000 C 
ATOM      3  C3  UNL     1       5.009  62.489  31.226  0.00  0.00    +0.000 C 
ATOM      4  C4  UNL     1       4.062  61.976  30.235  0.00  0.00    +0.000 C 
ATOM      5  O1  UNL     1       3.107  62.696  29.841  0.00  0.00    +0.000 OA
ATOM      6  C5  UNL     1       4.229  60.626  29.705  0.00  0.00    +0.000 C 
ATOM      7  C6  UNL     1       5.238  59.859  30.117  0.00  0.00    +0.000 C 
ATOM      8  C7  UNL     1       6.271  60.308  31.144  0.00  0.00    +0.000 C 
ATOM      9  C8  UNL     1       6.205  59.317  32.324  0.00  0.00    +0.000 C 
ATOM     10  C9  UNL     1       7.654  60.225  30.470  0.00  0.00    +0.000 C 
ENDROOT
TORSDOF 0
ENDMDL
