MODEL 1
REMARK VINA RESULT:      -5.7      0.000      0.000
REMARK  Name = .\Carvacrol.pdb
REMARK  5 active torsions:
REMARK  status: ('A' for Active; 'I' for Inactive)
REMARK    1  A    between atoms: C1_1  and  C2_2
REMARK    2  A    between atoms: C2_2  and  C3_3
REMARK    3  A    between atoms: C2_2  and  C4_4
REMARK    4  A    between atoms: C6_6  and  O1_11
REMARK    5  A    between atoms: C7_7  and  C10_10
REMARK                            x       y       z     vdW  Elec       q    Type
REMARK                         _______ _______ _______ _____ _____    ______ ____
ROOT
ATOM      1  C4  UNL     1     -11.927  51.986   8.712  0.00  0.00    +0.000 A 
ATOM      2  C5  UNL     1     -11.717  52.021  10.101  0.00  0.00    +0.000 A 
ATOM      3  C6  UNL     1     -11.128  50.935  10.764  0.00  0.00    +0.000 A 
ATOM      4  C7  UNL     1     -10.740  49.795  10.038  0.00  0.00    +0.000 A 
ATOM      5  C8  UNL     1     -10.949  49.758   8.650  0.00  0.00    +0.000 A 
ATOM      6  C9  UNL     1     -11.536  50.842   7.994  0.00  0.00    +0.000 A 
ATOM      7  C10 UNL     1     -10.109  48.628  10.741  0.00  0.00    +0.000 C 
ENDROOT
BRANCH   1   9
ATOM      8  C1  UNL     1     -14.044  52.900   7.705  0.00  0.00    +0.000 C 
ATOM      9  C2  UNL     1     -12.566  53.171   8.011  0.00  0.00    +0.000 C 
ATOM     10  C3  UNL     1     -12.397  54.456   8.830  0.00  0.00    +0.000 C 
ENDBRANCH   1   9
BRANCH   3  11
ATOM     11  O1  UNL     1     -10.927  50.984  12.144  0.00  0.00    +0.000 OA
ATOM     12  H14 UNL     1     -10.682  51.848  12.615  0.00  0.00    +0.000 HD
ENDBRANCH   3  11
TORSDOF 2
ENDMDL
MODEL 2
REMARK VINA RESULT:      -5.7      1.487      4.223
REMARK  Name = .\Carvacrol.pdb
REMARK  5 active torsions:
REMARK  status: ('A' for Active; 'I' for Inactive)
REMARK    1  A    between atoms: C1_1  and  C2_2
REMARK    2  A    between atoms: C2_2  and  C3_3
REMARK    3  A    between atoms: C2_2  and  C4_4
REMARK    4  A    between atoms: C6_6  and  O1_11
REMARK    5  A    between atoms: C7_7  and  C10_10
REMARK                            x       y       z     vdW  Elec       q    Type
REMARK                         _______ _______ _______ _____ _____    ______ ____
ROOT
ATOM      1  C4  UNL     1     -11.283  50.199  10.489  0.00  0.00    +0.000 A 
ATOM      2  C5  UNL     1     -11.631  51.508  10.862  0.00  0.00    +0.000 A 
ATOM      3  C6  UNL     1     -11.841  52.498   9.891  0.00  0.00    +0.000 A 
ATOM      4  C7  UNL     1     -11.702  52.185   8.528  0.00  0.00    +0.000 A 
ATOM      5  C8  UNL     1     -11.354  50.878   8.152  0.00  0.00    +0.000 A 
ATOM      6  C9  UNL     1     -11.147  49.895   9.123  0.00  0.00    +0.000 A 
ATOM      7  C10 UNL     1     -11.925  53.240   7.482  0.00  0.00    +0.000 C 
ENDROOT
BRANCH   1   9
ATOM      8  C1  UNL     1      -9.755  48.373  11.304  0.00  0.00    +0.000 C 
ATOM      9  C2  UNL     1     -11.060  49.140  11.552  0.00  0.00    +0.000 C 
ATOM     10  C3  UNL     1     -11.081  49.754  12.957  0.00  0.00    +0.000 C 
ENDBRANCH   1   9
BRANCH   3  11
ATOM     11  O1  UNL     1     -12.186  53.794  10.277  0.00  0.00    +0.000 OA
ATOM     12  H14 UNL     1     -13.074  54.207  10.017  0.00  0.00    +0.000 HD
ENDBRANCH   3  11
TORSDOF 2
ENDMDL
MODEL 3
REMARK VINA RESULT:      -5.6      1.589      2.233
REMARK  Name = .\Carvacrol.pdb
REMARK  5 active torsions:
REMARK  status: ('A' for Active; 'I' for Inactive)
REMARK    1  A    between atoms: C1_1  and  C2_2
REMARK    2  A    between atoms: C2_2  and  C3_3
REMARK    3  A    between atoms: C2_2  and  C4_4
REMARK    4  A    between atoms: C6_6  and  O1_11
REMARK    5  A    between atoms: C7_7  and  C10_10
REMARK                            x       y       z     vdW  Elec       q    Type
REMARK                         _______ _______ _______ _____ _____    ______ ____
ROOT
ATOM      1  C4  UNL     1     -11.475  51.323   9.307  0.00  0.00    +0.000 A 
ATOM      2  C5  UNL     1     -10.921  50.049   9.089  0.00  0.00    +0.000 A 
ATOM      3  C6  UNL     1     -10.651  49.192  10.166  0.00  0.00    +0.000 A 
ATOM      4  C7  UNL     1     -10.933  49.605  11.480  0.00  0.00    +0.000 A 
ATOM      5  C8  UNL     1     -11.486  50.876  11.700  0.00  0.00    +0.000 A 
ATOM      6  C9  UNL     1     -11.754  51.727  10.624  0.00  0.00    +0.000 A 
ATOM      7  C10 UNL     1     -10.646  48.693  12.638  0.00  0.00    +0.000 C 
ENDROOT
BRANCH   1   9
ATOM      8  C1  UNL     1     -13.270  52.396   7.909  0.00  0.00    +0.000 C 
ATOM      9  C2  UNL     1     -11.761  52.237   8.130  0.00  0.00    +0.000 C 
ATOM     10  C3  UNL     1     -11.083  53.600   8.311  0.00  0.00    +0.000 C 
ENDBRANCH   1   9
BRANCH   3  11
ATOM     11  O1  UNL     1     -10.101  47.931   9.934  0.00  0.00    +0.000 OA
ATOM     12  H14 UNL     1     -10.386  47.364   9.144  0.00  0.00    +0.000 HD
ENDBRANCH   3  11
TORSDOF 2
ENDMDL
MODEL 4
REMARK VINA RESULT:      -5.6      1.913      4.588
REMARK  Name = .\Carvacrol.pdb
REMARK  5 active torsions:
REMARK  status: ('A' for Active; 'I' for Inactive)
REMARK    1  A    between atoms: C1_1  and  C2_2
REMARK    2  A    between atoms: C2_2  and  C3_3
REMARK    3  A    between atoms: C2_2  and  C4_4
REMARK    4  A    between atoms: C6_6  and  O1_11
REMARK    5  A    between atoms: C7_7  and  C10_10
REMARK                            x       y       z     vdW  Elec       q    Type
REMARK                         _______ _______ _______ _____ _____    ______ ____
ROOT
ATOM      1  C4  UNL     1     -11.320  50.423  10.832  0.00  0.00    +0.000 A 
ATOM      2  C5  UNL     1     -11.450  49.897   9.535  0.00  0.00    +0.000 A 
ATOM      3  C6  UNL     1     -11.736  50.735   8.447  0.00  0.00    +0.000 A 
ATOM      4  C7  UNL     1     -11.897  52.117   8.649  0.00  0.00    +0.000 A 
ATOM      5  C8  UNL     1     -11.767  52.645   9.942  0.00  0.00    +0.000 A 
ATOM      6  C9  UNL     1     -11.482  51.807  11.023  0.00  0.00    +0.000 A 
ATOM      7  C10 UNL     1     -12.203  53.020   7.488  0.00  0.00    +0.000 C 
ENDROOT
BRANCH   1   9
ATOM      8  C1  UNL     1      -9.889  48.519  11.642  0.00  0.00    +0.000 C 
ATOM      9  C2  UNL     1     -11.010  49.503  11.997  0.00  0.00    +0.000 C 
ATOM     10  C3  UNL     1     -10.663  50.304  13.258  0.00  0.00    +0.000 C 
ENDBRANCH   1   9
BRANCH   3  11
ATOM     11  O1  UNL     1     -11.863  50.197   7.166  0.00  0.00    +0.000 OA
ATOM     12  H14 UNL     1     -12.726  49.768   6.853  0.00  0.00    +0.000 HD
ENDBRANCH   3  11
TORSDOF 2
ENDMDL
MODEL 5
REMARK VINA RESULT:      -5.4      1.347      1.465
REMARK  Name = .\Carvacrol.pdb
REMARK  5 active torsions:
REMARK  status: ('A' for Active; 'I' for Inactive)
REMARK    1  A    between atoms: C1_1  and  C2_2
REMARK    2  A    between atoms: C2_2  and  C3_3
REMARK    3  A    between atoms: C2_2  and  C4_4
REMARK    4  A    between atoms: C6_6  and  O1_11
REMARK    5  A    between atoms: C7_7  and  C10_10
REMARK                            x       y       z     vdW  Elec       q    Type
REMARK                         _______ _______ _______ _____ _____    ______ ____
ROOT
ATOM      1  C4  UNL     1     -12.967  51.295   8.793  0.00  0.00    +0.000 A 
ATOM      2  C5  UNL     1     -13.138  50.821  10.105  0.00  0.00    +0.000 A 
ATOM      3  C6  UNL     1     -12.220  49.921  10.666  0.00  0.00    +0.000 A 
ATOM      4  C7  UNL     1     -11.116  49.484   9.913  0.00  0.00    +0.000 A 
ATOM      5  C8  UNL     1     -10.943  49.957   8.603  0.00  0.00    +0.000 A 
ATOM      6  C9  UNL     1     -11.860  50.853   8.048  0.00  0.00    +0.000 A 
ATOM      7  C10 UNL     1     -10.128  48.520  10.507  0.00  0.00    +0.000 C 
ENDROOT
BRANCH   1   9
ATOM      8  C1  UNL     1     -14.594  53.149   9.292  0.00  0.00    +0.000 C 
ATOM      9  C2  UNL     1     -13.970  52.269   8.202  0.00  0.00    +0.000 C 
ATOM     10  C3  UNL     1     -13.330  53.123   7.101  0.00  0.00    +0.000 C 
ENDBRANCH   1   9
BRANCH   3  11
ATOM     11  O1  UNL     1     -12.403  49.457  11.969  0.00  0.00    +0.000 OA
ATOM     12  H14 UNL     1     -13.127  48.786  12.197  0.00  0.00    +0.000 HD
ENDBRANCH   3  11
TORSDOF 2
ENDMDL
MODEL 6
REMARK VINA RESULT:      -5.4      2.355      4.786
REMARK  Name = .\Carvacrol.pdb
REMARK  5 active torsions:
REMARK  status: ('A' for Active; 'I' for Inactive)
REMARK    1  A    between atoms: C1_1  and  C2_2
REMARK    2  A    between atoms: C2_2  and  C3_3
REMARK    3  A    between atoms: C2_2  and  C4_4
REMARK    4  A    between atoms: C6_6  and  O1_11
REMARK    5  A    between atoms: C7_7  and  C10_10
REMARK                            x       y       z     vdW  Elec       q    Type
REMARK                         _______ _______ _______ _____ _____    ______ ____
ROOT
ATOM      1  C4  UNL     1     -12.642  50.974   9.003  0.00  0.00    +0.000 A 
ATOM      2  C5  UNL     1     -12.063  51.630   7.904  0.00  0.00    +0.000 A 
ATOM      3  C6  UNL     1     -12.736  52.678   7.259  0.00  0.00    +0.000 A 
ATOM      4  C7  UNL     1     -14.005  53.081   7.711  0.00  0.00    +0.000 A 
ATOM      5  C8  UNL     1     -14.585  52.427   8.809  0.00  0.00    +0.000 A 
ATOM      6  C9  UNL     1     -13.911  51.384   9.449  0.00  0.00    +0.000 A 
ATOM      7  C10 UNL     1     -14.732  54.202   7.025  0.00  0.00    +0.000 C 
ENDROOT
BRANCH   1   9
ATOM      8  C1  UNL     1     -10.678  49.407   8.871  0.00  0.00    +0.000 C 
ATOM      9  C2  UNL     1     -11.899  49.843   9.689  0.00  0.00    +0.000 C 
ATOM     10  C3  UNL     1     -11.497  50.230  11.117  0.00  0.00    +0.000 C 
ENDBRANCH   1   9
BRANCH   3  11
ATOM     11  O1  UNL     1     -12.149  53.319   6.168  0.00  0.00    +0.000 OA
ATOM     12  H14 UNL     1     -12.387  53.072   5.214  0.00  0.00    +0.000 HD
ENDBRANCH   3  11
TORSDOF 2
ENDMDL
MODEL 7
REMARK VINA RESULT:      -5.4      1.762      2.459
REMARK  Name = .\Carvacrol.pdb
REMARK  5 active torsions:
REMARK  status: ('A' for Active; 'I' for Inactive)
REMARK    1  A    between atoms: C1_1  and  C2_2
REMARK    2  A    between atoms: C2_2  and  C3_3
REMARK    3  A    between atoms: C2_2  and  C4_4
REMARK    4  A    between atoms: C6_6  and  O1_11
REMARK    5  A    between atoms: C7_7  and  C10_10
REMARK                            x       y       z     vdW  Elec       q    Type
REMARK                         _______ _______ _______ _____ _____    ______ ____
ROOT
ATOM      1  C4  UNL     1     -12.045  50.560   9.568  0.00  0.00    +0.000 A 
ATOM      2  C5  UNL     1     -10.791  49.931   9.652  0.00  0.00    +0.000 A 
ATOM      3  C6  UNL     1     -10.402  49.261  10.821  0.00  0.00    +0.000 A 
ATOM      4  C7  UNL     1     -11.271  49.214  11.925  0.00  0.00    +0.000 A 
ATOM      5  C8  UNL     1     -12.523  49.841  11.844  0.00  0.00    +0.000 A 
ATOM      6  C9  UNL     1     -12.907  50.508  10.678  0.00  0.00    +0.000 A 
ATOM      7  C10 UNL     1     -10.861  48.498  13.180  0.00  0.00    +0.000 C 
ENDROOT
BRANCH   1   9
ATOM      8  C1  UNL     1     -13.779  52.021   8.479  0.00  0.00    +0.000 C 
ATOM      9  C2  UNL     1     -12.449  51.281   8.296  0.00  0.00    +0.000 C 
ATOM     10  C3  UNL     1     -11.346  52.236   7.826  0.00  0.00    +0.000 C 
ENDBRANCH   1   9
BRANCH   3  11
ATOM     11  O1  UNL     1      -9.154  48.642  10.889  0.00  0.00    +0.000 OA
ATOM     12  H14 UNL     1      -9.057  47.668  11.153  0.00  0.00    +0.000 HD
ENDBRANCH   3  11
TORSDOF 2
ENDMDL
MODEL 8
REMARK VINA RESULT:      -5.4      1.915      2.603
REMARK  Name = .\Carvacrol.pdb
REMARK  5 active torsions:
REMARK  status: ('A' for Active; 'I' for Inactive)
REMARK    1  A    between atoms: C1_1  and  C2_2
REMARK    2  A    between atoms: C2_2  and  C3_3
REMARK    3  A    between atoms: C2_2  and  C4_4
REMARK    4  A    between atoms: C6_6  and  O1_11
REMARK    5  A    between atoms: C7_7  and  C10_10
REMARK                            x       y       z     vdW  Elec       q    Type
REMARK                         _______ _______ _______ _____ _____    ______ ____
ROOT
ATOM      1  C4  UNL     1     -12.782  53.265   8.922  0.00  0.00    +0.000 A 
ATOM      2  C5  UNL     1     -12.623  52.295   7.918  0.00  0.00    +0.000 A 
ATOM      3  C6  UNL     1     -11.942  51.097   8.181  0.00  0.00    +0.000 A 
ATOM      4  C7  UNL     1     -11.408  50.859   9.460  0.00  0.00    +0.000 A 
ATOM      5  C8  UNL     1     -11.566  51.827  10.464  0.00  0.00    +0.000 A 
ATOM      6  C9  UNL     1     -12.246  53.018  10.198  0.00  0.00    +0.000 A 
ATOM      7  C10 UNL     1     -10.677  49.579   9.749  0.00  0.00    +0.000 C 
ENDROOT
BRANCH   1   9
ATOM      8  C1  UNL     1     -14.426  54.399   7.392  0.00  0.00    +0.000 C 
ATOM      9  C2  UNL     1     -13.522  54.555   8.621  0.00  0.00    +0.000 C 
ATOM     10  C3  UNL     1     -14.323  55.031   9.839  0.00  0.00    +0.000 C 
ENDBRANCH   1   9
BRANCH   3  11
ATOM     11  O1  UNL     1     -11.791  50.144   7.174  0.00  0.00    +0.000 OA
ATOM     12  H14 UNL     1     -12.024  49.169   7.326  0.00  0.00    +0.000 HD
ENDBRANCH   3  11
TORSDOF 2
ENDMDL
MODEL 9
REMARK VINA RESULT:      -5.1      1.998      4.475
REMARK  Name = .\Carvacrol.pdb
REMARK  5 active torsions:
REMARK  status: ('A' for Active; 'I' for Inactive)
REMARK    1  A    between atoms: C1_1  and  C2_2
REMARK    2  A    between atoms: C2_2  and  C3_3
REMARK    3  A    between atoms: C2_2  and  C4_4
REMARK    4  A    between atoms: C6_6  and  O1_11
REMARK    5  A    between atoms: C7_7  and  C10_10
REMARK                            x       y       z     vdW  Elec       q    Type
REMARK                         _______ _______ _______ _____ _____    ______ ____
ROOT
ATOM      1  C4  UNL     1     -12.019  51.237   9.189  0.00  0.00    +0.000 A 
ATOM      2  C5  UNL     1     -13.281  51.529   9.731  0.00  0.00    +0.000 A 
ATOM      3  C6  UNL     1     -14.153  52.414   9.080  0.00  0.00    +0.000 A 
ATOM      4  C7  UNL     1     -13.766  53.019   7.872  0.00  0.00    +0.000 A 
ATOM      5  C8  UNL     1     -12.505  52.728   7.328  0.00  0.00    +0.000 A 
ATOM      6  C9  UNL     1     -11.640  51.846   7.979  0.00  0.00    +0.000 A 
ATOM      7  C10 UNL     1     -14.694  53.968   7.169  0.00  0.00    +0.000 C 
ENDROOT
BRANCH   1   9
ATOM      8  C1  UNL     1     -11.766  49.668  11.140  0.00  0.00    +0.000 C 
ATOM      9  C2  UNL     1     -11.088  50.277   9.906  0.00  0.00    +0.000 C 
ATOM     10  C3  UNL     1     -10.582  49.183   8.958  0.00  0.00    +0.000 C 
ENDBRANCH   1   9
BRANCH   3  11
ATOM     11  O1  UNL     1     -15.403  52.695   9.632  0.00  0.00    +0.000 OA
ATOM     12  H14 UNL     1     -16.185  52.985   9.055  0.00  0.00    +0.000 HD
ENDBRANCH   3  11
TORSDOF 2
ENDMDL
