MODEL 1
REMARK VINA RESULT:      -4.9      0.000      0.000
REMARK  Name = .\Carvone.pdb
REMARK  3 active torsions:
REMARK  status: ('A' for Active; 'I' for Inactive)
REMARK    1  A    between atoms: C1_1  and  C2_2
REMARK    2  A    between atoms: C7_8  and  C8_9
REMARK    3  A    between atoms: C7_8  and  C9_10
REMARK                            x       y       z     vdW  Elec       q    Type
REMARK                         _______ _______ _______ _____ _____    ______ ____
ROOT
ATOM      1  C1  UNL     1      -1.627  48.690   4.957  0.00  0.00    +0.000 C 
ATOM      2  C2  UNL     1      -0.483  48.422   4.011  0.00  0.00    +0.000 C 
ATOM      3  C3  UNL     1      -0.743  48.486   2.695  0.00  0.00    +0.000 C 
ATOM      4  C4  UNL     1       0.303  48.242   1.701  0.00  0.00    +0.000 C 
ATOM      5  O1  UNL     1       0.035  48.307   0.472  0.00  0.00    +0.000 OA
ATOM      6  C5  UNL     1       1.658  47.921   2.139  0.00  0.00    +0.000 C 
ATOM      7  C6  UNL     1       1.948  47.850   3.439  0.00  0.00    +0.000 C 
ATOM      8  C7  UNL     1       0.925  48.089   4.543  0.00  0.00    +0.000 C 
ATOM      9  C8  UNL     1       0.863  46.806   5.395  0.00  0.00    +0.000 C 
ATOM     10  C9  UNL     1       1.442  49.261   5.401  0.00  0.00    +0.000 C 
ENDROOT
TORSDOF 0
ENDMDL
MODEL 2
REMARK VINA RESULT:      -4.8      2.129      3.630
REMARK  Name = .\Carvone.pdb
REMARK  3 active torsions:
REMARK  status: ('A' for Active; 'I' for Inactive)
REMARK    1  A    between atoms: C1_1  and  C2_2
REMARK    2  A    between atoms: C7_8  and  C8_9
REMARK    3  A    between atoms: C7_8  and  C9_10
REMARK                            x       y       z     vdW  Elec       q    Type
REMARK                         _______ _______ _______ _____ _____    ______ ____
ROOT
ATOM      1  C1  UNL     1       2.300  46.482   4.101  0.00  0.00    +0.000 C 
ATOM      2  C2  UNL     1       1.091  47.379   3.983  0.00  0.00    +0.000 C 
ATOM      3  C3  UNL     1       0.537  47.819   5.124  0.00  0.00    +0.000 C 
ATOM      4  C4  UNL     1      -0.637  48.693   5.111  0.00  0.00    +0.000 C 
ATOM      5  O1  UNL     1      -1.139  49.093   6.194  0.00  0.00    +0.000 OA
ATOM      6  C5  UNL     1      -1.224  49.097   3.837  0.00  0.00    +0.000 C 
ATOM      7  C6  UNL     1      -0.697  48.678   2.687  0.00  0.00    +0.000 C 
ATOM      8  C7  UNL     1       0.524  47.767   2.604  0.00  0.00    +0.000 C 
ATOM      9  C8  UNL     1       0.095  46.495   1.846  0.00  0.00    +0.000 C 
ATOM     10  C9  UNL     1       1.601  48.518   1.796  0.00  0.00    +0.000 C 
ENDROOT
TORSDOF 0
ENDMDL
MODEL 3
REMARK VINA RESULT:      -4.8      1.264      2.574
REMARK  Name = .\Carvone.pdb
REMARK  3 active torsions:
REMARK  status: ('A' for Active; 'I' for Inactive)
REMARK    1  A    between atoms: C1_1  and  C2_2
REMARK    2  A    between atoms: C7_8  and  C8_9
REMARK    3  A    between atoms: C7_8  and  C9_10
REMARK                            x       y       z     vdW  Elec       q    Type
REMARK                         _______ _______ _______ _____ _____    ______ ____
ROOT
ATOM      1  C1  UNL     1       1.605  46.289   5.994  0.00  0.00    +0.000 C 
ATOM      2  C2  UNL     1       0.811  47.043   4.955  0.00  0.00    +0.000 C 
ATOM      3  C3  UNL     1       0.790  46.539   3.711  0.00  0.00    +0.000 C 
ATOM      4  C4  UNL     1       0.047  47.200   2.636  0.00  0.00    +0.000 C 
ATOM      5  O1  UNL     1       0.042  46.709   1.477  0.00  0.00    +0.000 OA
ATOM      6  C5  UNL     1      -0.687  48.431   2.915  0.00  0.00    +0.000 C 
ATOM      7  C6  UNL     1      -0.687  48.955   4.140  0.00  0.00    +0.000 C 
ATOM      8  C7  UNL     1       0.057  48.337   5.319  0.00  0.00    +0.000 C 
ATOM      9  C8  UNL     1       1.060  49.391   5.830  0.00  0.00    +0.000 C 
ATOM     10  C9  UNL     1      -0.986  48.037   6.413  0.00  0.00    +0.000 C 
ENDROOT
TORSDOF 0
ENDMDL
MODEL 4
REMARK VINA RESULT:      -4.6      1.713      3.177
REMARK  Name = .\Carvone.pdb
REMARK  3 active torsions:
REMARK  status: ('A' for Active; 'I' for Inactive)
REMARK    1  A    between atoms: C1_1  and  C2_2
REMARK    2  A    between atoms: C7_8  and  C8_9
REMARK    3  A    between atoms: C7_8  and  C9_10
REMARK                            x       y       z     vdW  Elec       q    Type
REMARK                         _______ _______ _______ _____ _____    ______ ____
ROOT
ATOM      1  C1  UNL     1       0.536  47.677   0.665  0.00  0.00    +0.000 C 
ATOM      2  C2  UNL     1       0.480  48.059   2.125  0.00  0.00    +0.000 C 
ATOM      3  C3  UNL     1      -0.666  48.590   2.578  0.00  0.00    +0.000 C 
ATOM      4  C4  UNL     1      -0.816  48.992   3.978  0.00  0.00    +0.000 C 
ATOM      5  O1  UNL     1      -1.901  49.488   4.381  0.00  0.00    +0.000 OA
ATOM      6  C5  UNL     1       0.298  48.814   4.905  0.00  0.00    +0.000 C 
ATOM      7  C6  UNL     1       1.449  48.288   4.485  0.00  0.00    +0.000 C 
ATOM      8  C7  UNL     1       1.695  47.842   3.048  0.00  0.00    +0.000 C 
ATOM      9  C8  UNL     1       2.896  48.651   2.517  0.00  0.00    +0.000 C 
ATOM     10  C9  UNL     1       2.052  46.344   3.088  0.00  0.00    +0.000 C 
ENDROOT
TORSDOF 0
ENDMDL
MODEL 5
REMARK VINA RESULT:      -4.4      2.606      3.644
REMARK  Name = .\Carvone.pdb
REMARK  3 active torsions:
REMARK  status: ('A' for Active; 'I' for Inactive)
REMARK    1  A    between atoms: C1_1  and  C2_2
REMARK    2  A    between atoms: C7_8  and  C8_9
REMARK    3  A    between atoms: C7_8  and  C9_10
REMARK                            x       y       z     vdW  Elec       q    Type
REMARK                         _______ _______ _______ _____ _____    ______ ____
ROOT
ATOM      1  C1  UNL     1      -1.203  49.326   3.696  0.00  0.00    +0.000 C 
ATOM      2  C2  UNL     1      -0.344  48.233   4.284  0.00  0.00    +0.000 C 
ATOM      3  C3  UNL     1      -0.492  47.970   5.592  0.00  0.00    +0.000 C 
ATOM      4  C4  UNL     1       0.296  46.928   6.252  0.00  0.00    +0.000 C 
ATOM      5  O1  UNL     1       0.140  46.699   7.480  0.00  0.00    +0.000 OA
ATOM      6  C5  UNL     1       1.264  46.155   5.479  0.00  0.00    +0.000 C 
ATOM      7  C6  UNL     1       1.434  46.392   4.178  0.00  0.00    +0.000 C 
ATOM      8  C7  UNL     1       0.659  47.455   3.409  0.00  0.00    +0.000 C 
ATOM      9  C8  UNL     1       1.691  48.434   2.815  0.00  0.00    +0.000 C 
ATOM     10  C9  UNL     1      -0.096  46.740   2.272  0.00  0.00    +0.000 C 
ENDROOT
TORSDOF 0
ENDMDL
MODEL 6
REMARK VINA RESULT:      -4.4      1.764      2.572
REMARK  Name = .\Carvone.pdb
REMARK  3 active torsions:
REMARK  status: ('A' for Active; 'I' for Inactive)
REMARK    1  A    between atoms: C1_1  and  C2_2
REMARK    2  A    between atoms: C7_8  and  C8_9
REMARK    3  A    between atoms: C7_8  and  C9_10
REMARK                            x       y       z     vdW  Elec       q    Type
REMARK                         _______ _______ _______ _____ _____    ______ ____
ROOT
ATOM      1  C1  UNL     1       1.070  48.732   7.000  0.00  0.00    +0.000 C 
ATOM      2  C2  UNL     1       0.469  48.644   5.619  0.00  0.00    +0.000 C 
ATOM      3  C3  UNL     1      -0.632  49.373   5.379  0.00  0.00    +0.000 C 
ATOM      4  C4  UNL     1      -1.287  49.352   4.069  0.00  0.00    +0.000 C 
ATOM      5  O1  UNL     1      -2.319  50.045   3.867  0.00  0.00    +0.000 OA
ATOM      6  C5  UNL     1      -0.738  48.525   2.999  0.00  0.00    +0.000 C 
ATOM      7  C6  UNL     1       0.355  47.791   3.206  0.00  0.00    +0.000 C 
ATOM      8  C7  UNL     1       1.102  47.750   4.534  0.00  0.00    +0.000 C 
ATOM      9  C8  UNL     1       1.105  46.284   5.013  0.00  0.00    +0.000 C 
ATOM     10  C9  UNL     1       2.546  48.213   4.263  0.00  0.00    +0.000 C 
ENDROOT
TORSDOF 0
ENDMDL
MODEL 7
REMARK VINA RESULT:      -4.4      2.003      4.087
REMARK  Name = .\Carvone.pdb
REMARK  3 active torsions:
REMARK  status: ('A' for Active; 'I' for Inactive)
REMARK    1  A    between atoms: C1_1  and  C2_2
REMARK    2  A    between atoms: C7_8  and  C8_9
REMARK    3  A    between atoms: C7_8  and  C9_10
REMARK                            x       y       z     vdW  Elec       q    Type
REMARK                         _______ _______ _______ _____ _____    ______ ____
ROOT
ATOM      1  C1  UNL     1       3.867  48.589   1.922  0.00  0.00    +0.000 C 
ATOM      2  C2  UNL     1       2.381  48.418   2.121  0.00  0.00    +0.000 C 
ATOM      3  C3  UNL     1       1.936  48.319   3.384  0.00  0.00    +0.000 C 
ATOM      4  C4  UNL     1       0.512  48.151   3.677  0.00  0.00    +0.000 C 
ATOM      5  O1  UNL     1       0.118  48.060   4.870  0.00  0.00    +0.000 OA
ATOM      6  C5  UNL     1      -0.450  48.088   2.581  0.00  0.00    +0.000 C 
ATOM      7  C6  UNL     1      -0.040  48.184   1.316  0.00  0.00    +0.000 C 
ATOM      8  C7  UNL     1       1.421  48.360   0.917  0.00  0.00    +0.000 C 
ATOM      9  C8  UNL     1       1.796  47.167   0.015  0.00  0.00    +0.000 C 
ATOM     10  C9  UNL     1       1.521  49.672   0.114  0.00  0.00    +0.000 C 
ENDROOT
TORSDOF 0
ENDMDL
MODEL 8
REMARK VINA RESULT:      -4.3      1.383      2.683
REMARK  Name = .\Carvone.pdb
REMARK  3 active torsions:
REMARK  status: ('A' for Active; 'I' for Inactive)
REMARK    1  A    between atoms: C1_1  and  C2_2
REMARK    2  A    between atoms: C7_8  and  C8_9
REMARK    3  A    between atoms: C7_8  and  C9_10
REMARK                            x       y       z     vdW  Elec       q    Type
REMARK                         _______ _______ _______ _____ _____    ______ ____
ROOT
ATOM      1  C1  UNL     1       2.820  48.942   4.127  0.00  0.00    +0.000 C 
ATOM      2  C2  UNL     1       1.959  48.178   3.151  0.00  0.00    +0.000 C 
ATOM      3  C3  UNL     1       2.363  48.141   1.871  0.00  0.00    +0.000 C 
ATOM      4  C4  UNL     1       1.593  47.425   0.852  0.00  0.00    +0.000 C 
ATOM      5  O1  UNL     1       1.992  47.403  -0.343  0.00  0.00    +0.000 OA
ATOM      6  C5  UNL     1       0.361  46.738   1.226  0.00  0.00    +0.000 C 
ATOM      7  C6  UNL     1      -0.067  46.756   2.488  0.00  0.00    +0.000 C 
ATOM      8  C7  UNL     1       0.668  47.474   3.614  0.00  0.00    +0.000 C 
ATOM      9  C8  UNL     1      -0.303  48.516   4.204  0.00  0.00    +0.000 C 
ATOM     10  C9  UNL     1       1.013  46.419   4.683  0.00  0.00    +0.000 C 
ENDROOT
TORSDOF 0
ENDMDL
MODEL 9
REMARK VINA RESULT:      -4.3      2.276      3.177
REMARK  Name = .\Carvone.pdb
REMARK  3 active torsions:
REMARK  status: ('A' for Active; 'I' for Inactive)
REMARK    1  A    between atoms: C1_1  and  C2_2
REMARK    2  A    between atoms: C7_8  and  C8_9
REMARK    3  A    between atoms: C7_8  and  C9_10
REMARK                            x       y       z     vdW  Elec       q    Type
REMARK                         _______ _______ _______ _____ _____    ______ ____
ROOT
ATOM      1  C1  UNL     1      -0.192  48.030   1.641  0.00  0.00    +0.000 C 
ATOM      2  C2  UNL     1       1.198  48.550   1.366  0.00  0.00    +0.000 C 
ATOM      3  C3  UNL     1       1.353  49.369   0.314  0.00  0.00    +0.000 C 
ATOM      4  C4  UNL     1       2.662  49.924  -0.032  0.00  0.00    +0.000 C 
ATOM      5  O1  UNL     1       2.783  50.690  -1.024  0.00  0.00    +0.000 OA
ATOM      6  C5  UNL     1       3.828  49.584   0.778  0.00  0.00    +0.000 C 
ATOM      7  C6  UNL     1       3.708  48.775   1.830  0.00  0.00    +0.000 C 
ATOM      8  C7  UNL     1       2.386  48.151   2.264  0.00  0.00    +0.000 C 
ATOM      9  C8  UNL     1       2.568  46.621   2.228  0.00  0.00    +0.000 C 
ATOM     10  C9  UNL     1       2.116  48.610   3.710  0.00  0.00    +0.000 C 
ENDROOT
TORSDOF 0
ENDMDL
