MODEL 1
REMARK VINA RESULT:      -4.6      0.000      0.000
REMARK  Name = .\Carvone.pdb
REMARK  3 active torsions:
REMARK  status: ('A' for Active; 'I' for Inactive)
REMARK    1  A    between atoms: C1_1  and  C2_2
REMARK    2  A    between atoms: C7_8  and  C8_9
REMARK    3  A    between atoms: C7_8  and  C9_10
REMARK                            x       y       z     vdW  Elec       q    Type
REMARK                         _______ _______ _______ _____ _____    ______ ____
ROOT
ATOM      1  C1  UNL     1       9.767  47.849  34.080  0.00  0.00    +0.000 C 
ATOM      2  C2  UNL     1       8.889  47.005  33.188  0.00  0.00    +0.000 C 
ATOM      3  C3  UNL     1       8.666  45.737  33.566  0.00  0.00    +0.000 C 
ATOM      4  C4  UNL     1       7.829  44.841  32.767  0.00  0.00    +0.000 C 
ATOM      5  O1  UNL     1       7.633  43.655  33.142  0.00  0.00    +0.000 OA
ATOM      6  C5  UNL     1       7.221  45.329  31.533  0.00  0.00    +0.000 C 
ATOM      7  C6  UNL     1       7.423  46.584  31.130  0.00  0.00    +0.000 C 
ATOM      8  C7  UNL     1       8.279  47.586  31.897  0.00  0.00    +0.000 C 
ATOM      9  C8  UNL     1       9.409  48.041  30.953  0.00  0.00    +0.000 C 
ATOM     10  C9  UNL     1       7.377  48.785  32.248  0.00  0.00    +0.000 C 
ENDROOT
TORSDOF 0
ENDMDL
MODEL 2
REMARK VINA RESULT:      -4.4      0.805      2.625
REMARK  Name = .\Carvone.pdb
REMARK  3 active torsions:
REMARK  status: ('A' for Active; 'I' for Inactive)
REMARK    1  A    between atoms: C1_1  and  C2_2
REMARK    2  A    between atoms: C7_8  and  C8_9
REMARK    3  A    between atoms: C7_8  and  C9_10
REMARK                            x       y       z     vdW  Elec       q    Type
REMARK                         _______ _______ _______ _____ _____    ______ ____
ROOT
ATOM      1  C1  UNL     1       7.129  46.376  30.164  0.00  0.00    +0.000 C 
ATOM      2  C2  UNL     1       7.836  46.482  31.493  0.00  0.00    +0.000 C 
ATOM      3  C3  UNL     1       7.916  45.369  32.239  0.00  0.00    +0.000 C 
ATOM      4  C4  UNL     1       8.582  45.374  33.542  0.00  0.00    +0.000 C 
ATOM      5  O1  UNL     1       8.645  44.317  34.224  0.00  0.00    +0.000 OA
ATOM      6  C5  UNL     1       9.175  46.609  34.047  0.00  0.00    +0.000 C 
ATOM      7  C6  UNL     1       9.113  47.731  33.330  0.00  0.00    +0.000 C 
ATOM      8  C7  UNL     1       8.440  47.820  31.965  0.00  0.00    +0.000 C 
ATOM      9  C8  UNL     1       7.324  48.878  32.072  0.00  0.00    +0.000 C 
ATOM     10  C9  UNL     1       9.507  48.288  30.957  0.00  0.00    +0.000 C 
ENDROOT
TORSDOF 0
ENDMDL
MODEL 3
REMARK VINA RESULT:      -4.0      1.498      2.669
REMARK  Name = .\Carvone.pdb
REMARK  3 active torsions:
REMARK  status: ('A' for Active; 'I' for Inactive)
REMARK    1  A    between atoms: C1_1  and  C2_2
REMARK    2  A    between atoms: C7_8  and  C8_9
REMARK    3  A    between atoms: C7_8  and  C9_10
REMARK                            x       y       z     vdW  Elec       q    Type
REMARK                         _______ _______ _______ _____ _____    ______ ____
ROOT
ATOM      1  C1  UNL     1       9.001  45.418  36.328  0.00  0.00    +0.000 C 
ATOM      2  C2  UNL     1       8.881  45.965  34.927  0.00  0.00    +0.000 C 
ATOM      3  C3  UNL     1       8.451  45.125  33.972  0.00  0.00    +0.000 C 
ATOM      4  C4  UNL     1       8.302  45.565  32.583  0.00  0.00    +0.000 C 
ATOM      5  O1  UNL     1       7.896  44.760  31.705  0.00  0.00    +0.000 OA
ATOM      6  C5  UNL     1       8.627  46.942  32.222  0.00  0.00    +0.000 C 
ATOM      7  C6  UNL     1       9.056  47.800  33.147  0.00  0.00    +0.000 C 
ATOM      8  C7  UNL     1       9.241  47.431  34.615  0.00  0.00    +0.000 C 
ATOM      9  C8  UNL     1      10.720  47.685  34.968  0.00  0.00    +0.000 C 
ATOM     10  C9  UNL     1       8.339  48.370  35.440  0.00  0.00    +0.000 C 
ENDROOT
TORSDOF 0
ENDMDL
MODEL 4
REMARK VINA RESULT:      -4.0      1.398      2.989
REMARK  Name = .\Carvone.pdb
REMARK  3 active torsions:
REMARK  status: ('A' for Active; 'I' for Inactive)
REMARK    1  A    between atoms: C1_1  and  C2_2
REMARK    2  A    between atoms: C7_8  and  C8_9
REMARK    3  A    between atoms: C7_8  and  C9_10
REMARK                            x       y       z     vdW  Elec       q    Type
REMARK                         _______ _______ _______ _____ _____    ______ ____
ROOT
ATOM      1  C1  UNL     1       9.067  49.083  32.792  0.00  0.00    +0.000 C 
ATOM      2  C2  UNL     1       8.890  47.668  33.288  0.00  0.00    +0.000 C 
ATOM      3  C3  UNL     1       8.492  46.748  32.396  0.00  0.00    +0.000 C 
ATOM      4  C4  UNL     1       8.293  45.350  32.783  0.00  0.00    +0.000 C 
ATOM      5  O1  UNL     1       7.919  44.504  31.928  0.00  0.00    +0.000 OA
ATOM      6  C5  UNL     1       8.529  44.941  34.164  0.00  0.00    +0.000 C 
ATOM      7  C6  UNL     1       8.926  45.832  35.074  0.00  0.00    +0.000 C 
ATOM      8  C7  UNL     1       9.158  47.306  34.762  0.00  0.00    +0.000 C 
ATOM      9  C8  UNL     1       8.217  48.120  35.672  0.00  0.00    +0.000 C 
ATOM     10  C9  UNL     1      10.625  47.623  35.112  0.00  0.00    +0.000 C 
ENDROOT
TORSDOF 0
ENDMDL
MODEL 5
REMARK VINA RESULT:      -3.9      1.971      3.521
REMARK  Name = .\Carvone.pdb
REMARK  3 active torsions:
REMARK  status: ('A' for Active; 'I' for Inactive)
REMARK    1  A    between atoms: C1_1  and  C2_2
REMARK    2  A    between atoms: C7_8  and  C8_9
REMARK    3  A    between atoms: C7_8  and  C9_10
REMARK                            x       y       z     vdW  Elec       q    Type
REMARK                         _______ _______ _______ _____ _____    ______ ____
ROOT
ATOM      1  C1  UNL     1       8.728  45.018  35.354  0.00  0.00    +0.000 C 
ATOM      2  C2  UNL     1       8.551  45.529  33.945  0.00  0.00    +0.000 C 
ATOM      3  C3  UNL     1       8.912  46.798  33.699  0.00  0.00    +0.000 C 
ATOM      4  C4  UNL     1       8.778  47.382  32.364  0.00  0.00    +0.000 C 
ATOM      5  O1  UNL     1       9.124  48.575  32.157  0.00  0.00    +0.000 OA
ATOM      6  C5  UNL     1       8.241  46.576  31.272  0.00  0.00    +0.000 C 
ATOM      7  C6  UNL     1       7.873  45.312  31.483  0.00  0.00    +0.000 C 
ATOM      8  C7  UNL     1       7.977  44.621  32.839  0.00  0.00    +0.000 C 
ATOM      9  C8  UNL     1       6.557  44.166  33.231  0.00  0.00    +0.000 C 
ATOM     10  C9  UNL     1       8.887  43.391  32.658  0.00  0.00    +0.000 C 
ENDROOT
TORSDOF 0
ENDMDL
MODEL 6
REMARK VINA RESULT:      -3.9      1.971      3.343
REMARK  Name = .\Carvone.pdb
REMARK  3 active torsions:
REMARK  status: ('A' for Active; 'I' for Inactive)
REMARK    1  A    between atoms: C1_1  and  C2_2
REMARK    2  A    between atoms: C7_8  and  C8_9
REMARK    3  A    between atoms: C7_8  and  C9_10
REMARK                            x       y       z     vdW  Elec       q    Type
REMARK                         _______ _______ _______ _____ _____    ______ ____
ROOT
ATOM      1  C1  UNL     1       8.527  45.266  34.705  0.00  0.00    +0.000 C 
ATOM      2  C2  UNL     1       8.824  46.459  33.830  0.00  0.00    +0.000 C 
ATOM      3  C3  UNL     1       8.601  46.327  32.513  0.00  0.00    +0.000 C 
ATOM      4  C4  UNL     1       8.859  47.429  31.584  0.00  0.00    +0.000 C 
ATOM      5  O1  UNL     1       8.642  47.283  30.353  0.00  0.00    +0.000 OA
ATOM      6  C5  UNL     1       9.370  48.699  32.093  0.00  0.00    +0.000 C 
ATOM      7  C6  UNL     1       9.601  48.861  33.396  0.00  0.00    +0.000 C 
ATOM      8  C7  UNL     1       9.362  47.771  34.434  0.00  0.00    +0.000 C 
ATOM      9  C8  UNL     1      10.709  47.502  35.134  0.00  0.00    +0.000 C 
ATOM     10  C9  UNL     1       8.346  48.324  35.453  0.00  0.00    +0.000 C 
ENDROOT
TORSDOF 0
ENDMDL
MODEL 7
REMARK VINA RESULT:      -3.8      1.667      3.199
REMARK  Name = .\Carvone.pdb
REMARK  3 active torsions:
REMARK  status: ('A' for Active; 'I' for Inactive)
REMARK    1  A    between atoms: C1_1  and  C2_2
REMARK    2  A    between atoms: C7_8  and  C8_9
REMARK    3  A    between atoms: C7_8  and  C9_10
REMARK                            x       y       z     vdW  Elec       q    Type
REMARK                         _______ _______ _______ _____ _____    ______ ____
ROOT
ATOM      1  C1  UNL     1       7.690  45.963  31.568  0.00  0.00    +0.000 C 
ATOM      2  C2  UNL     1       8.424  46.872  32.524  0.00  0.00    +0.000 C 
ATOM      3  C3  UNL     1       8.815  46.346  33.696  0.00  0.00    +0.000 C 
ATOM      4  C4  UNL     1       9.533  47.150  34.687  0.00  0.00    +0.000 C 
ATOM      5  O1  UNL     1       9.890  46.635  35.780  0.00  0.00    +0.000 OA
ATOM      6  C5  UNL     1       9.833  48.550  34.403  0.00  0.00    +0.000 C 
ATOM      7  C6  UNL     1       9.459  49.101  33.248  0.00  0.00    +0.000 C 
ATOM      8  C7  UNL     1       8.708  48.342  32.159  0.00  0.00    +0.000 C 
ATOM      9  C8  UNL     1       7.376  49.081  31.922  0.00  0.00    +0.000 C 
ATOM     10  C9  UNL     1       9.571  48.400  30.884  0.00  0.00    +0.000 C 
ENDROOT
TORSDOF 0
ENDMDL
MODEL 8
REMARK VINA RESULT:      -3.4      2.814      4.276
REMARK  Name = .\Carvone.pdb
REMARK  3 active torsions:
REMARK  status: ('A' for Active; 'I' for Inactive)
REMARK    1  A    between atoms: C1_1  and  C2_2
REMARK    2  A    between atoms: C7_8  and  C8_9
REMARK    3  A    between atoms: C7_8  and  C9_10
REMARK                            x       y       z     vdW  Elec       q    Type
REMARK                         _______ _______ _______ _____ _____    ______ ____
ROOT
ATOM      1  C1  UNL     1       7.754  47.518  31.693  0.00  0.00    +0.000 C 
ATOM      2  C2  UNL     1       8.483  48.623  32.418  0.00  0.00    +0.000 C 
ATOM      3  C3  UNL     1       8.620  48.501  33.747  0.00  0.00    +0.000 C 
ATOM      4  C4  UNL     1       9.311  49.522  34.537  0.00  0.00    +0.000 C 
ATOM      5  O1  UNL     1       9.429  49.386  35.783  0.00  0.00    +0.000 OA
ATOM      6  C5  UNL     1       9.864  50.699  33.872  0.00  0.00    +0.000 C 
ATOM      7  C6  UNL     1       9.744  50.849  32.553  0.00  0.00    +0.000 C 
ATOM      8  C7  UNL     1       9.042  49.839  31.653  0.00  0.00    +0.000 C 
ATOM      9  C8  UNL     1       7.888  50.579  30.948  0.00  0.00    +0.000 C 
ATOM     10  C9  UNL     1      10.070  49.363  30.609  0.00  0.00    +0.000 C 
ENDROOT
TORSDOF 0
ENDMDL
MODEL 9
REMARK VINA RESULT:      -3.3      2.006      3.520
REMARK  Name = .\Carvone.pdb
REMARK  3 active torsions:
REMARK  status: ('A' for Active; 'I' for Inactive)
REMARK    1  A    between atoms: C1_1  and  C2_2
REMARK    2  A    between atoms: C7_8  and  C8_9
REMARK    3  A    between atoms: C7_8  and  C9_10
REMARK                            x       y       z     vdW  Elec       q    Type
REMARK                         _______ _______ _______ _____ _____    ______ ____
ROOT
ATOM      1  C1  UNL     1      10.747  50.444  33.162  0.00  0.00    +0.000 C 
ATOM      2  C2  UNL     1      10.019  49.125  33.084  0.00  0.00    +0.000 C 
ATOM      3  C3  UNL     1       9.597  48.725  31.874  0.00  0.00    +0.000 C 
ATOM      4  C4  UNL     1       8.882  47.459  31.698  0.00  0.00    +0.000 C 
ATOM      5  O1  UNL     1       8.496  47.104  30.553  0.00  0.00    +0.000 OA
ATOM      6  C5  UNL     1       8.618  46.611  32.857  0.00  0.00    +0.000 C 
ATOM      7  C6  UNL     1       9.025  46.980  34.071  0.00  0.00    +0.000 C 
ATOM      8  C7  UNL     1       9.775  48.278  34.349  0.00  0.00    +0.000 C 
ATOM      9  C8  UNL     1       8.933  49.087  35.355  0.00  0.00    +0.000 C 
ATOM     10  C9  UNL     1      11.127  47.899  34.984  0.00  0.00    +0.000 C 
ENDROOT
TORSDOF 0
ENDMDL
