MODEL 1
REMARK VINA RESULT:      -3.7      0.000      0.000
REMARK  Name = .\Carvone.pdb
REMARK  3 active torsions:
REMARK  status: ('A' for Active; 'I' for Inactive)
REMARK    1  A    between atoms: C1_1  and  C2_2
REMARK    2  A    between atoms: C7_8  and  C8_9
REMARK    3  A    between atoms: C7_8  and  C9_10
REMARK                            x       y       z     vdW  Elec       q    Type
REMARK                         _______ _______ _______ _____ _____    ______ ____
ROOT
ATOM      1  C1  UNL     1      15.443  92.532  97.695  0.00  0.00    +0.000 C 
ATOM      2  C2  UNL     1      15.020  91.504  98.716  0.00  0.00    +0.000 C 
ATOM      3  C3  UNL     1      15.339  90.224  98.470  0.00  0.00    +0.000 C 
ATOM      4  C4  UNL     1      14.971  89.156  99.401  0.00  0.00    +0.000 C 
ATOM      5  O1  UNL     1      15.282  87.962  99.150  0.00  0.00    +0.000 OA
ATOM      6  C5  UNL     1      14.243  89.482 100.624  0.00  0.00    +0.000 C 
ATOM      7  C6  UNL     1      13.912  90.745 100.897  0.00  0.00    +0.000 C 
ATOM      8  C7  UNL     1      14.252  91.919  99.986  0.00  0.00    +0.000 C 
ATOM      9  C8  UNL     1      12.923  92.591  99.589  0.00  0.00    +0.000 C 
ATOM     10  C9  UNL     1      15.109  92.902 100.808  0.00  0.00    +0.000 C 
ENDROOT
TORSDOF 0
ENDMDL
MODEL 2
REMARK VINA RESULT:      -3.5      2.324      3.185
REMARK  Name = .\Carvone.pdb
REMARK  3 active torsions:
REMARK  status: ('A' for Active; 'I' for Inactive)
REMARK    1  A    between atoms: C1_1  and  C2_2
REMARK    2  A    between atoms: C7_8  and  C8_9
REMARK    3  A    between atoms: C7_8  and  C9_10
REMARK                            x       y       z     vdW  Elec       q    Type
REMARK                         _______ _______ _______ _____ _____    ______ ____
ROOT
ATOM      1  C1  UNL     1      14.179  89.840  99.456  0.00  0.00    +0.000 C 
ATOM      2  C2  UNL     1      15.079  89.404 100.586  0.00  0.00    +0.000 C 
ATOM      3  C3  UNL     1      16.140  88.645 100.270  0.00  0.00    +0.000 C 
ATOM      4  C4  UNL     1      17.070  88.174 101.298  0.00  0.00    +0.000 C 
ATOM      5  O1  UNL     1      18.060  87.463 100.978  0.00  0.00    +0.000 OA
ATOM      6  C5  UNL     1      16.846  88.532 102.695  0.00  0.00    +0.000 C 
ATOM      7  C6  UNL     1      15.801  89.284 103.041  0.00  0.00    +0.000 C 
ATOM      8  C7  UNL     1      14.783  89.819 102.041  0.00  0.00    +0.000 C 
ATOM      9  C8  UNL     1      13.402  89.277 102.460  0.00  0.00    +0.000 C 
ATOM     10  C9  UNL     1      14.795  91.356 102.151  0.00  0.00    +0.000 C 
ENDROOT
TORSDOF 0
ENDMDL
MODEL 3
REMARK VINA RESULT:      -3.5      0.593      2.650
REMARK  Name = .\Carvone.pdb
REMARK  3 active torsions:
REMARK  status: ('A' for Active; 'I' for Inactive)
REMARK    1  A    between atoms: C1_1  and  C2_2
REMARK    2  A    between atoms: C7_8  and  C8_9
REMARK    3  A    between atoms: C7_8  and  C9_10
REMARK                            x       y       z     vdW  Elec       q    Type
REMARK                         _______ _______ _______ _____ _____    ______ ____
ROOT
ATOM      1  C1  UNL     1      12.984  90.613 102.327  0.00  0.00    +0.000 C 
ATOM      2  C2  UNL     1      13.781  90.558 101.046  0.00  0.00    +0.000 C 
ATOM      3  C3  UNL     1      14.187  89.349 100.626  0.00  0.00    +0.000 C 
ATOM      4  C4  UNL     1      14.966  89.195  99.396  0.00  0.00    +0.000 C 
ATOM      5  O1  UNL     1      15.335  88.051  99.020  0.00  0.00    +0.000 OA
ATOM      6  C5  UNL     1      15.312  90.373  98.606  0.00  0.00    +0.000 C 
ATOM      7  C6  UNL     1      14.923  91.586  98.997  0.00  0.00    +0.000 C 
ATOM      8  C7  UNL     1      14.111  91.842 100.261  0.00  0.00    +0.000 C 
ATOM      9  C8  UNL     1      14.937  92.792 101.151  0.00  0.00    +0.000 C 
ATOM     10  C9  UNL     1      12.803  92.535  99.833  0.00  0.00    +0.000 C 
ENDROOT
TORSDOF 0
ENDMDL
MODEL 4
REMARK VINA RESULT:      -3.4      1.933      3.337
REMARK  Name = .\Carvone.pdb
REMARK  3 active torsions:
REMARK  status: ('A' for Active; 'I' for Inactive)
REMARK    1  A    between atoms: C1_1  and  C2_2
REMARK    2  A    between atoms: C7_8  and  C8_9
REMARK    3  A    between atoms: C7_8  and  C9_10
REMARK                            x       y       z     vdW  Elec       q    Type
REMARK                         _______ _______ _______ _____ _____    ______ ____
ROOT
ATOM      1  C1  UNL     1      15.336  90.537 103.595  0.00  0.00    +0.000 C 
ATOM      2  C2  UNL     1      15.447  89.891 102.236  0.00  0.00    +0.000 C 
ATOM      3  C3  UNL     1      16.367  88.925 102.087  0.00  0.00    +0.000 C 
ATOM      4  C4  UNL     1      16.548  88.239 100.806  0.00  0.00    +0.000 C 
ATOM      5  O1  UNL     1      17.418  87.336 100.689  0.00  0.00    +0.000 OA
ATOM      6  C5  UNL     1      15.717  88.608  99.664  0.00  0.00    +0.000 C 
ATOM      7  C6  UNL     1      14.794  89.563  99.781  0.00  0.00    +0.000 C 
ATOM      8  C7  UNL     1      14.535  90.329 101.073  0.00  0.00    +0.000 C 
ATOM      9  C8  UNL     1      14.765  91.824 100.773  0.00  0.00    +0.000 C 
ATOM     10  C9  UNL     1      13.061  90.095 101.457  0.00  0.00    +0.000 C 
ENDROOT
TORSDOF 0
ENDMDL
MODEL 5
REMARK VINA RESULT:      -3.4      1.144      1.433
REMARK  Name = .\Carvone.pdb
REMARK  3 active torsions:
REMARK  status: ('A' for Active; 'I' for Inactive)
REMARK    1  A    between atoms: C1_1  and  C2_2
REMARK    2  A    between atoms: C7_8  and  C8_9
REMARK    3  A    between atoms: C7_8  and  C9_10
REMARK                            x       y       z     vdW  Elec       q    Type
REMARK                         _______ _______ _______ _____ _____    ______ ____
ROOT
ATOM      1  C1  UNL     1      15.774  92.757  97.531  0.00  0.00    +0.000 C 
ATOM      2  C2  UNL     1      14.838  92.147  98.545  0.00  0.00    +0.000 C 
ATOM      3  C3  UNL     1      14.996  90.843  98.822  0.00  0.00    +0.000 C 
ATOM      4  C4  UNL     1      14.136  90.163  99.792  0.00  0.00    +0.000 C 
ATOM      5  O1  UNL     1      14.303  88.939 100.037  0.00  0.00    +0.000 OA
ATOM      6  C5  UNL     1      13.083  90.910 100.475  0.00  0.00    +0.000 C 
ATOM      7  C6  UNL     1      12.902  92.206 100.222  0.00  0.00    +0.000 C 
ATOM      8  C7  UNL     1      13.748  92.995  99.229  0.00  0.00    +0.000 C 
ATOM      9  C8  UNL     1      12.791  93.563  98.162  0.00  0.00    +0.000 C 
ATOM     10  C9  UNL     1      14.406  94.151 100.006  0.00  0.00    +0.000 C 
ENDROOT
TORSDOF 0
ENDMDL
MODEL 6
REMARK VINA RESULT:      -3.4      2.057      3.453
REMARK  Name = .\Carvone.pdb
REMARK  3 active torsions:
REMARK  status: ('A' for Active; 'I' for Inactive)
REMARK    1  A    between atoms: C1_1  and  C2_2
REMARK    2  A    between atoms: C7_8  and  C8_9
REMARK    3  A    between atoms: C7_8  and  C9_10
REMARK                            x       y       z     vdW  Elec       q    Type
REMARK                         _______ _______ _______ _____ _____    ______ ____
ROOT
ATOM      1  C1  UNL     1      15.084  88.556  99.121  0.00  0.00    +0.000 C 
ATOM      2  C2  UNL     1      15.007  89.930  99.741  0.00  0.00    +0.000 C 
ATOM      3  C3  UNL     1      15.142  90.984  98.921  0.00  0.00    +0.000 C 
ATOM      4  C4  UNL     1      15.082  92.356  99.430  0.00  0.00    +0.000 C 
ATOM      5  O1  UNL     1      15.211  93.329  98.642  0.00  0.00    +0.000 OA
ATOM      6  C5  UNL     1      14.871  92.589 100.856  0.00  0.00    +0.000 C 
ATOM      7  C6  UNL     1      14.733  91.563 101.696  0.00  0.00    +0.000 C 
ATOM      8  C7  UNL     1      14.782  90.104 101.256  0.00  0.00    +0.000 C 
ATOM      9  C8  UNL     1      15.934  89.432 102.028  0.00  0.00    +0.000 C 
ATOM     10  C9  UNL     1      13.440  89.460 101.655  0.00  0.00    +0.000 C 
ENDROOT
TORSDOF 0
ENDMDL
MODEL 7
REMARK VINA RESULT:      -3.3      1.812      3.206
REMARK  Name = .\Carvone.pdb
REMARK  3 active torsions:
REMARK  status: ('A' for Active; 'I' for Inactive)
REMARK    1  A    between atoms: C1_1  and  C2_2
REMARK    2  A    between atoms: C7_8  and  C8_9
REMARK    3  A    between atoms: C7_8  and  C9_10
REMARK                            x       y       z     vdW  Elec       q    Type
REMARK                         _______ _______ _______ _____ _____    ______ ____
ROOT
ATOM      1  C1  UNL     1      14.418  92.362 102.480  0.00  0.00    +0.000 C 
ATOM      2  C2  UNL     1      14.681  91.445 101.311  0.00  0.00    +0.000 C 
ATOM      3  C3  UNL     1      14.873  92.016 100.111  0.00  0.00    +0.000 C 
ATOM      4  C4  UNL     1      15.134  91.208  98.918  0.00  0.00    +0.000 C 
ATOM      5  O1  UNL     1      15.312  91.766  97.803  0.00  0.00    +0.000 OA
ATOM      6  C5  UNL     1      15.188  89.753  99.027  0.00  0.00    +0.000 C 
ATOM      7  C6  UNL     1      15.002  89.157 100.204  0.00  0.00    +0.000 C 
ATOM      8  C7  UNL     1      14.725  89.915 101.497  0.00  0.00    +0.000 C 
ATOM      9  C8  UNL     1      13.366  89.423 102.035  0.00  0.00    +0.000 C 
ATOM     10  C9  UNL     1      15.843  89.549 102.492  0.00  0.00    +0.000 C 
ENDROOT
TORSDOF 0
ENDMDL
MODEL 8
REMARK VINA RESULT:      -3.3      2.322      3.442
REMARK  Name = .\Carvone.pdb
REMARK  3 active torsions:
REMARK  status: ('A' for Active; 'I' for Inactive)
REMARK    1  A    between atoms: C1_1  and  C2_2
REMARK    2  A    between atoms: C7_8  and  C8_9
REMARK    3  A    between atoms: C7_8  and  C9_10
REMARK                            x       y       z     vdW  Elec       q    Type
REMARK                         _______ _______ _______ _____ _____    ______ ____
ROOT
ATOM      1  C1  UNL     1      15.387  88.992  99.827  0.00  0.00    +0.000 C 
ATOM      2  C2  UNL     1      14.372  90.056 100.166  0.00  0.00    +0.000 C 
ATOM      3  C3  UNL     1      13.798  90.709  99.143  0.00  0.00    +0.000 C 
ATOM      4  C4  UNL     1      12.803  91.757  99.373  0.00  0.00    +0.000 C 
ATOM      5  O1  UNL     1      12.277  92.355  98.397  0.00  0.00    +0.000 OA
ATOM      6  C5  UNL     1      12.422  92.106 100.738  0.00  0.00    +0.000 C 
ATOM      7  C6  UNL     1      12.973  91.477 101.775  0.00  0.00    +0.000 C 
ATOM      8  C7  UNL     1      14.016  90.374 101.632  0.00  0.00    +0.000 C 
ATOM      9  C8  UNL     1      15.281  90.840 102.380  0.00  0.00    +0.000 C 
ATOM     10  C9  UNL     1      13.446  89.113 102.309  0.00  0.00    +0.000 C 
ENDROOT
TORSDOF 0
ENDMDL
MODEL 9
REMARK VINA RESULT:      -3.3      1.644      2.328
REMARK  Name = .\Carvone.pdb
REMARK  3 active torsions:
REMARK  status: ('A' for Active; 'I' for Inactive)
REMARK    1  A    between atoms: C1_1  and  C2_2
REMARK    2  A    between atoms: C7_8  and  C8_9
REMARK    3  A    between atoms: C7_8  and  C9_10
REMARK                            x       y       z     vdW  Elec       q    Type
REMARK                         _______ _______ _______ _____ _____    ______ ____
ROOT
ATOM      1  C1  UNL     1      15.121  94.212  97.149  0.00  0.00    +0.000 C 
ATOM      2  C2  UNL     1      14.532  93.066  97.936  0.00  0.00    +0.000 C 
ATOM      3  C3  UNL     1      15.380  92.132  98.394  0.00  0.00    +0.000 C 
ATOM      4  C4  UNL     1      14.902  90.984  99.166  0.00  0.00    +0.000 C 
ATOM      5  O1  UNL     1      15.717  90.121  99.586  0.00  0.00    +0.000 OA
ATOM      6  C5  UNL     1      13.477  90.845  99.448  0.00  0.00    +0.000 C 
ATOM      7  C6  UNL     1      12.609  91.755  99.007  0.00  0.00    +0.000 C 
ATOM      8  C7  UNL     1      13.015  92.981  98.196  0.00  0.00    +0.000 C 
ATOM      9  C8  UNL     1      12.264  92.910  96.852  0.00  0.00    +0.000 C 
ATOM     10  C9  UNL     1      12.557  94.224  98.984  0.00  0.00    +0.000 C 
ENDROOT
TORSDOF 0
ENDMDL
