MODEL 1
REMARK VINA RESULT:      -4.0      0.000      0.000
REMARK  Name = .\Carvacrol.pdb
REMARK  5 active torsions:
REMARK  status: ('A' for Active; 'I' for Inactive)
REMARK    1  A    between atoms: C1_1  and  C2_2
REMARK    2  A    between atoms: C2_2  and  C3_3
REMARK    3  A    between atoms: C2_2  and  C4_4
REMARK    4  A    between atoms: C6_6  and  O1_11
REMARK    5  A    between atoms: C7_7  and  C10_10
REMARK                            x       y       z     vdW  Elec       q    Type
REMARK                         _______ _______ _______ _____ _____    ______ ____
ROOT
ATOM      1  C4  UNL     1     -29.277  51.006   8.495  0.00  0.00    +0.000 A 
ATOM      2  C5  UNL     1     -28.888  52.201   7.866  0.00  0.00    +0.000 A 
ATOM      3  C6  UNL     1     -29.138  52.406   6.501  0.00  0.00    +0.000 A 
ATOM      4  C7  UNL     1     -29.783  51.409   5.748  0.00  0.00    +0.000 A 
ATOM      5  C8  UNL     1     -30.171  50.215   6.374  0.00  0.00    +0.000 A 
ATOM      6  C9  UNL     1     -29.922  50.015   7.734  0.00  0.00    +0.000 A 
ATOM      7  C10 UNL     1     -30.053  51.621   4.285  0.00  0.00    +0.000 C 
ENDROOT
BRANCH   1   9
ATOM      8  C1  UNL     1     -28.723  49.326  10.284  0.00  0.00    +0.000 C 
ATOM      9  C2  UNL     1     -28.999  50.802   9.973  0.00  0.00    +0.000 C 
ATOM     10  C3  UNL     1     -27.845  51.692  10.447  0.00  0.00    +0.000 C 
ENDBRANCH   1   9
BRANCH   3  11
ATOM     11  O1  UNL     1     -28.745  53.597   5.890  0.00  0.00    +0.000 OA
ATOM     12  H14 UNL     1     -28.391  53.616   4.940  0.00  0.00    +0.000 HD
ENDBRANCH   3  11
TORSDOF 2
ENDMDL
MODEL 2
REMARK VINA RESULT:      -3.7      1.867      2.488
REMARK  Name = .\Carvacrol.pdb
REMARK  5 active torsions:
REMARK  status: ('A' for Active; 'I' for Inactive)
REMARK    1  A    between atoms: C1_1  and  C2_2
REMARK    2  A    between atoms: C2_2  and  C3_3
REMARK    3  A    between atoms: C2_2  and  C4_4
REMARK    4  A    between atoms: C6_6  and  O1_11
REMARK    5  A    between atoms: C7_7  and  C10_10
REMARK                            x       y       z     vdW  Elec       q    Type
REMARK                         _______ _______ _______ _____ _____    ______ ____
ROOT
ATOM      1  C4  UNL     1     -30.085  50.750   7.592  0.00  0.00    +0.000 A 
ATOM      2  C5  UNL     1     -30.880  50.006   6.703  0.00  0.00    +0.000 A 
ATOM      3  C6  UNL     1     -30.905  50.313   5.335  0.00  0.00    +0.000 A 
ATOM      4  C7  UNL     1     -30.129  51.376   4.840  0.00  0.00    +0.000 A 
ATOM      5  C8  UNL     1     -29.334  52.120   5.725  0.00  0.00    +0.000 A 
ATOM      6  C9  UNL     1     -29.311  51.811   7.087  0.00  0.00    +0.000 A 
ATOM      7  C10 UNL     1     -30.151  51.711   3.376  0.00  0.00    +0.000 C 
ENDROOT
BRANCH   1   9
ATOM      8  C1  UNL     1     -30.729  49.043   9.324  0.00  0.00    +0.000 C 
ATOM      9  C2  UNL     1     -30.070  50.404   9.069  0.00  0.00    +0.000 C 
ATOM     10  C3  UNL     1     -28.643  50.441   9.631  0.00  0.00    +0.000 C 
ENDBRANCH   1   9
BRANCH   3  11
ATOM     11  O1  UNL     1     -31.700  49.566   4.466  0.00  0.00    +0.000 OA
ATOM     12  H14 UNL     1     -32.328  50.010   3.805  0.00  0.00    +0.000 HD
ENDBRANCH   3  11
TORSDOF 2
ENDMDL
MODEL 3
REMARK VINA RESULT:      -3.6      2.070      4.023
REMARK  Name = .\Carvacrol.pdb
REMARK  5 active torsions:
REMARK  status: ('A' for Active; 'I' for Inactive)
REMARK    1  A    between atoms: C1_1  and  C2_2
REMARK    2  A    between atoms: C2_2  and  C3_3
REMARK    3  A    between atoms: C2_2  and  C4_4
REMARK    4  A    between atoms: C6_6  and  O1_11
REMARK    5  A    between atoms: C7_7  and  C10_10
REMARK                            x       y       z     vdW  Elec       q    Type
REMARK                         _______ _______ _______ _____ _____    ______ ____
ROOT
ATOM      1  C4  UNL     1     -30.645  50.930   7.227  0.00  0.00    +0.000 A 
ATOM      2  C5  UNL     1     -30.807  51.980   8.148  0.00  0.00    +0.000 A 
ATOM      3  C6  UNL     1     -29.716  52.456   8.889  0.00  0.00    +0.000 A 
ATOM      4  C7  UNL     1     -28.444  51.883   8.715  0.00  0.00    +0.000 A 
ATOM      5  C8  UNL     1     -28.280  50.835   7.796  0.00  0.00    +0.000 A 
ATOM      6  C9  UNL     1     -29.369  50.363   7.059  0.00  0.00    +0.000 A 
ATOM      7  C10 UNL     1     -27.271  52.388   9.505  0.00  0.00    +0.000 C 
ENDROOT
BRANCH   1   9
ATOM      8  C1  UNL     1     -31.420  50.004   5.020  0.00  0.00    +0.000 C 
ATOM      9  C2  UNL     1     -31.836  50.427   6.434  0.00  0.00    +0.000 C 
ATOM     10  C3  UNL     1     -32.545  49.281   7.166  0.00  0.00    +0.000 C 
ENDBRANCH   1   9
BRANCH   3  11
ATOM     11  O1  UNL     1     -29.892  53.498   9.800  0.00  0.00    +0.000 OA
ATOM     12  H14 UNL     1     -29.577  54.440   9.598  0.00  0.00    +0.000 HD
ENDBRANCH   3  11
TORSDOF 2
ENDMDL
MODEL 4
REMARK VINA RESULT:      -3.6      2.502      3.412
REMARK  Name = .\Carvacrol.pdb
REMARK  5 active torsions:
REMARK  status: ('A' for Active; 'I' for Inactive)
REMARK    1  A    between atoms: C1_1  and  C2_2
REMARK    2  A    between atoms: C2_2  and  C3_3
REMARK    3  A    between atoms: C2_2  and  C4_4
REMARK    4  A    between atoms: C6_6  and  O1_11
REMARK    5  A    between atoms: C7_7  and  C10_10
REMARK                            x       y       z     vdW  Elec       q    Type
REMARK                         _______ _______ _______ _____ _____    ______ ____
ROOT
ATOM      1  C4  UNL     1     -31.696  49.921   7.724  0.00  0.00    +0.000 A 
ATOM      2  C5  UNL     1     -31.873  49.529   6.386  0.00  0.00    +0.000 A 
ATOM      3  C6  UNL     1     -31.189  50.185   5.352  0.00  0.00    +0.000 A 
ATOM      4  C7  UNL     1     -30.318  51.247   5.649  0.00  0.00    +0.000 A 
ATOM      5  C8  UNL     1     -30.140  51.640   6.984  0.00  0.00    +0.000 A 
ATOM      6  C9  UNL     1     -30.822  50.984   8.012  0.00  0.00    +0.000 A 
ATOM      7  C10 UNL     1     -29.583  51.955   4.546  0.00  0.00    +0.000 C 
ENDROOT
BRANCH   1   9
ATOM      8  C1  UNL     1     -33.071  47.899   8.317  0.00  0.00    +0.000 C 
ATOM      9  C2  UNL     1     -32.443  49.200   8.831  0.00  0.00    +0.000 C 
ATOM     10  C3  UNL     1     -31.530  48.935  10.034  0.00  0.00    +0.000 C 
ENDBRANCH   1   9
BRANCH   3  11
ATOM     11  O1  UNL     1     -31.375  49.785   4.028  0.00  0.00    +0.000 OA
ATOM     12  H14 UNL     1     -32.267  49.430   3.701  0.00  0.00    +0.000 HD
ENDBRANCH   3  11
TORSDOF 2
ENDMDL
MODEL 5
REMARK VINA RESULT:      -3.6      1.322      3.918
REMARK  Name = .\Carvacrol.pdb
REMARK  5 active torsions:
REMARK  status: ('A' for Active; 'I' for Inactive)
REMARK    1  A    between atoms: C1_1  and  C2_2
REMARK    2  A    between atoms: C2_2  and  C3_3
REMARK    3  A    between atoms: C2_2  and  C4_4
REMARK    4  A    between atoms: C6_6  and  O1_11
REMARK    5  A    between atoms: C7_7  and  C10_10
REMARK                            x       y       z     vdW  Elec       q    Type
REMARK                         _______ _______ _______ _____ _____    ______ ____
ROOT
ATOM      1  C4  UNL     1     -29.941  50.529   7.582  0.00  0.00    +0.000 A 
ATOM      2  C5  UNL     1     -28.971  51.470   7.200  0.00  0.00    +0.000 A 
ATOM      3  C6  UNL     1     -28.087  52.012   8.145  0.00  0.00    +0.000 A 
ATOM      4  C7  UNL     1     -28.169  51.614   9.491  0.00  0.00    +0.000 A 
ATOM      5  C8  UNL     1     -29.137  50.674   9.875  0.00  0.00    +0.000 A 
ATOM      6  C9  UNL     1     -30.015  50.136   8.930  0.00  0.00    +0.000 A 
ATOM      7  C10 UNL     1     -27.226  52.190  10.509  0.00  0.00    +0.000 C 
ENDROOT
BRANCH   1   9
ATOM      8  C1  UNL     1     -32.344  50.032   7.023  0.00  0.00    +0.000 C 
ATOM      9  C2  UNL     1     -30.889  49.952   6.546  0.00  0.00    +0.000 C 
ATOM     10  C3  UNL     1     -30.713  50.645   5.190  0.00  0.00    +0.000 C 
ENDBRANCH   1   9
BRANCH   3  11
ATOM     11  O1  UNL     1     -27.130  52.946   7.751  0.00  0.00    +0.000 OA
ATOM     12  H14 UNL     1     -26.141  52.721   7.737  0.00  0.00    +0.000 HD
ENDBRANCH   3  11
TORSDOF 2
ENDMDL
MODEL 6
REMARK VINA RESULT:      -3.6      1.869      3.545
REMARK  Name = .\Carvacrol.pdb
REMARK  5 active torsions:
REMARK  status: ('A' for Active; 'I' for Inactive)
REMARK    1  A    between atoms: C1_1  and  C2_2
REMARK    2  A    between atoms: C2_2  and  C3_3
REMARK    3  A    between atoms: C2_2  and  C4_4
REMARK    4  A    between atoms: C6_6  and  O1_11
REMARK    5  A    between atoms: C7_7  and  C10_10
REMARK                            x       y       z     vdW  Elec       q    Type
REMARK                         _______ _______ _______ _____ _____    ______ ____
ROOT
ATOM      1  C4  UNL     1     -31.186  50.709   7.441  0.00  0.00    +0.000 A 
ATOM      2  C5  UNL     1     -30.634  51.736   6.657  0.00  0.00    +0.000 A 
ATOM      3  C6  UNL     1     -29.384  52.287   6.975  0.00  0.00    +0.000 A 
ATOM      4  C7  UNL     1     -28.671  51.813   8.090  0.00  0.00    +0.000 A 
ATOM      5  C8  UNL     1     -29.220  50.787   8.875  0.00  0.00    +0.000 A 
ATOM      6  C9  UNL     1     -30.465  50.240   8.554  0.00  0.00    +0.000 A 
ATOM      7  C10 UNL     1     -27.332  52.398   8.437  0.00  0.00    +0.000 C 
ENDROOT
BRANCH   1   9
ATOM      8  C1  UNL     1     -32.736  48.748   7.730  0.00  0.00    +0.000 C 
ATOM      9  C2  UNL     1     -32.540  50.124   7.083  0.00  0.00    +0.000 C 
ATOM     10  C3  UNL     1     -33.675  51.081   7.465  0.00  0.00    +0.000 C 
ENDBRANCH   1   9
BRANCH   3  11
ATOM     11  O1  UNL     1     -28.850  53.307   6.188  0.00  0.00    +0.000 OA
ATOM     12  H14 UNL     1     -29.237  53.536   5.279  0.00  0.00    +0.000 HD
ENDBRANCH   3  11
TORSDOF 2
ENDMDL
MODEL 7
REMARK VINA RESULT:      -3.5      2.759      5.011
REMARK  Name = .\Carvacrol.pdb
REMARK  5 active torsions:
REMARK  status: ('A' for Active; 'I' for Inactive)
REMARK    1  A    between atoms: C1_1  and  C2_2
REMARK    2  A    between atoms: C2_2  and  C3_3
REMARK    3  A    between atoms: C2_2  and  C4_4
REMARK    4  A    between atoms: C6_6  and  O1_11
REMARK    5  A    between atoms: C7_7  and  C10_10
REMARK                            x       y       z     vdW  Elec       q    Type
REMARK                         _______ _______ _______ _____ _____    ______ ____
ROOT
ATOM      1  C4  UNL     1     -30.228  50.121   6.977  0.00  0.00    +0.000 A 
ATOM      2  C5  UNL     1     -31.111  49.377   7.779  0.00  0.00    +0.000 A 
ATOM      3  C6  UNL     1     -30.634  48.627   8.864  0.00  0.00    +0.000 A 
ATOM      4  C7  UNL     1     -29.259  48.613   9.158  0.00  0.00    +0.000 A 
ATOM      5  C8  UNL     1     -28.376  49.355   8.359  0.00  0.00    +0.000 A 
ATOM      6  C9  UNL     1     -28.854  50.101   7.279  0.00  0.00    +0.000 A 
ATOM      7  C10 UNL     1     -28.741  47.812  10.318  0.00  0.00    +0.000 C 
ENDROOT
BRANCH   1   9
ATOM      8  C1  UNL     1     -29.666  51.815   5.204  0.00  0.00    +0.000 C 
ATOM      9  C2  UNL     1     -30.761  50.927   5.808  0.00  0.00    +0.000 C 
ATOM     10  C3  UNL     1     -31.380  50.014   4.743  0.00  0.00    +0.000 C 
ENDBRANCH   1   9
BRANCH   3  11
ATOM     11  O1  UNL     1     -31.522  47.893   9.650  0.00  0.00    +0.000 OA
ATOM     12  H14 UNL     1     -31.977  47.058   9.300  0.00  0.00    +0.000 HD
ENDBRANCH   3  11
TORSDOF 2
ENDMDL
MODEL 8
REMARK VINA RESULT:      -3.5      2.703      4.699
REMARK  Name = .\Carvacrol.pdb
REMARK  5 active torsions:
REMARK  status: ('A' for Active; 'I' for Inactive)
REMARK    1  A    between atoms: C1_1  and  C2_2
REMARK    2  A    between atoms: C2_2  and  C3_3
REMARK    3  A    between atoms: C2_2  and  C4_4
REMARK    4  A    between atoms: C6_6  and  O1_11
REMARK    5  A    between atoms: C7_7  and  C10_10
REMARK                            x       y       z     vdW  Elec       q    Type
REMARK                         _______ _______ _______ _____ _____    ______ ____
ROOT
ATOM      1  C4  UNL     1     -30.344  50.391   6.582  0.00  0.00    +0.000 A 
ATOM      2  C5  UNL     1     -31.654  50.001   6.257  0.00  0.00    +0.000 A 
ATOM      3  C6  UNL     1     -32.375  49.140   7.098  0.00  0.00    +0.000 A 
ATOM      4  C7  UNL     1     -31.787  48.658   8.280  0.00  0.00    +0.000 A 
ATOM      5  C8  UNL     1     -30.478  49.046   8.607  0.00  0.00    +0.000 A 
ATOM      6  C9  UNL     1     -29.764  49.904   7.767  0.00  0.00    +0.000 A 
ATOM      7  C10 UNL     1     -32.552  47.735   9.185  0.00  0.00    +0.000 C 
ENDROOT
BRANCH   1   9
ATOM      8  C1  UNL     1     -30.232  51.391   4.276  0.00  0.00    +0.000 C 
ATOM      9  C2  UNL     1     -29.579  51.323   5.662  0.00  0.00    +0.000 C 
ATOM     10  C3  UNL     1     -29.443  52.721   6.278  0.00  0.00    +0.000 C 
ENDBRANCH   1   9
BRANCH   3  11
ATOM     11  O1  UNL     1     -33.675  48.762   6.761  0.00  0.00    +0.000 OA
ATOM     12  H14 UNL     1     -34.041  47.847   7.001  0.00  0.00    +0.000 HD
ENDBRANCH   3  11
TORSDOF 2
ENDMDL
MODEL 9
REMARK VINA RESULT:      -3.4      2.440      2.930
REMARK  Name = .\Carvacrol.pdb
REMARK  5 active torsions:
REMARK  status: ('A' for Active; 'I' for Inactive)
REMARK    1  A    between atoms: C1_1  and  C2_2
REMARK    2  A    between atoms: C2_2  and  C3_3
REMARK    3  A    between atoms: C2_2  and  C4_4
REMARK    4  A    between atoms: C6_6  and  O1_11
REMARK    5  A    between atoms: C7_7  and  C10_10
REMARK                            x       y       z     vdW  Elec       q    Type
REMARK                         _______ _______ _______ _____ _____    ______ ____
ROOT
ATOM      1  C4  UNL     1     -32.197  50.540   7.902  0.00  0.00    +0.000 A 
ATOM      2  C5  UNL     1     -31.420  51.710   7.938  0.00  0.00    +0.000 A 
ATOM      3  C6  UNL     1     -30.628  52.078   6.841  0.00  0.00    +0.000 A 
ATOM      4  C7  UNL     1     -30.605  51.272   5.689  0.00  0.00    +0.000 A 
ATOM      5  C8  UNL     1     -31.381  50.103   5.651  0.00  0.00    +0.000 A 
ATOM      6  C9  UNL     1     -32.169  49.740   6.746  0.00  0.00    +0.000 A 
ATOM      7  C10 UNL     1     -29.759  51.659   4.510  0.00  0.00    +0.000 C 
ENDROOT
BRANCH   1   9
ATOM      8  C1  UNL     1     -33.600  48.734   8.951  0.00  0.00    +0.000 C 
ATOM      9  C2  UNL     1     -33.048  50.157   9.098  0.00  0.00    +0.000 C 
ATOM     10  C3  UNL     1     -32.265  50.312  10.408  0.00  0.00    +0.000 C 
ENDBRANCH   1   9
BRANCH   3  11
ATOM     11  O1  UNL     1     -29.861  53.243   6.892  0.00  0.00    +0.000 OA
ATOM     12  H14 UNL     1     -29.271  53.456   7.688  0.00  0.00    +0.000 HD
ENDBRANCH   3  11
TORSDOF 2
ENDMDL
