MODEL 1
REMARK VINA RESULT:      -5.2      0.000      0.000
REMARK  Name = .\Carvone.pdb
REMARK  3 active torsions:
REMARK  status: ('A' for Active; 'I' for Inactive)
REMARK    1  A    between atoms: C1_1  and  C2_2
REMARK    2  A    between atoms: C7_8  and  C8_9
REMARK    3  A    between atoms: C7_8  and  C9_10
REMARK                            x       y       z     vdW  Elec       q    Type
REMARK                         _______ _______ _______ _____ _____    ______ ____
ROOT
ATOM      1  C1  UNL     1     -17.936  61.557 -19.188  0.00  0.00    +0.000 C 
ATOM      2  C2  UNL     1     -18.195  60.799 -17.909  0.00  0.00    +0.000 C 
ATOM      3  C3  UNL     1     -17.647  59.579 -17.794  0.00  0.00    +0.000 C 
ATOM      4  C4  UNL     1     -17.842  58.768 -16.591  0.00  0.00    +0.000 C 
ATOM      5  O1  UNL     1     -17.317  57.627 -16.505  0.00  0.00    +0.000 OA
ATOM      6  C5  UNL     1     -18.648  59.289 -15.491  0.00  0.00    +0.000 C 
ATOM      7  C6  UNL     1     -19.206  60.497 -15.574  0.00  0.00    +0.000 C 
ATOM      8  C7  UNL     1     -19.057  61.409 -16.786  0.00  0.00    +0.000 C 
ATOM      9  C8  UNL     1     -20.474  61.695 -17.322  0.00  0.00    +0.000 C 
ATOM     10  C9  UNL     1     -18.411  62.720 -16.296  0.00  0.00    +0.000 C 
ENDROOT
TORSDOF 0
ENDMDL
MODEL 2
REMARK VINA RESULT:      -4.8      1.547      2.049
REMARK  Name = .\Carvone.pdb
REMARK  3 active torsions:
REMARK  status: ('A' for Active; 'I' for Inactive)
REMARK    1  A    between atoms: C1_1  and  C2_2
REMARK    2  A    between atoms: C7_8  and  C8_9
REMARK    3  A    between atoms: C7_8  and  C9_10
REMARK                            x       y       z     vdW  Elec       q    Type
REMARK                         _______ _______ _______ _____ _____    ______ ____
ROOT
ATOM      1  C1  UNL     1     -19.692  63.074 -18.058  0.00  0.00    +0.000 C 
ATOM      2  C2  UNL     1     -18.983  61.768 -17.794  0.00  0.00    +0.000 C 
ATOM      3  C3  UNL     1     -18.273  61.237 -18.802  0.00  0.00    +0.000 C 
ATOM      4  C4  UNL     1     -17.552  59.974 -18.642  0.00  0.00    +0.000 C 
ATOM      5  O1  UNL     1     -16.892  59.495 -19.602  0.00  0.00    +0.000 OA
ATOM      6  C5  UNL     1     -17.601  59.270 -17.363  0.00  0.00    +0.000 C 
ATOM      7  C6  UNL     1     -18.297  59.771 -16.343  0.00  0.00    +0.000 C 
ATOM      8  C7  UNL     1     -19.078  61.078 -16.418  0.00  0.00    +0.000 C 
ATOM      9  C8  UNL     1     -20.551  60.751 -16.107  0.00  0.00    +0.000 C 
ATOM     10  C9  UNL     1     -18.511  62.014 -15.333  0.00  0.00    +0.000 C 
ENDROOT
TORSDOF 0
ENDMDL
MODEL 3
REMARK VINA RESULT:      -4.8      2.038      3.328
REMARK  Name = .\Carvone.pdb
REMARK  3 active torsions:
REMARK  status: ('A' for Active; 'I' for Inactive)
REMARK    1  A    between atoms: C1_1  and  C2_2
REMARK    2  A    between atoms: C7_8  and  C8_9
REMARK    3  A    between atoms: C7_8  and  C9_10
REMARK                            x       y       z     vdW  Elec       q    Type
REMARK                         _______ _______ _______ _____ _____    ______ ____
ROOT
ATOM      1  C1  UNL     1     -18.338  59.320 -15.987  0.00  0.00    +0.000 C 
ATOM      2  C2  UNL     1     -18.665  60.508 -16.859  0.00  0.00    +0.000 C 
ATOM      3  C3  UNL     1     -18.041  60.591 -18.045  0.00  0.00    +0.000 C 
ATOM      4  C4  UNL     1     -18.293  61.706 -18.959  0.00  0.00    +0.000 C 
ATOM      5  O1  UNL     1     -17.696  61.763 -20.067  0.00  0.00    +0.000 OA
ATOM      6  C5  UNL     1     -19.239  62.752 -18.581  0.00  0.00    +0.000 C 
ATOM      7  C6  UNL     1     -19.875  62.697 -17.411  0.00  0.00    +0.000 C 
ATOM      8  C7  UNL     1     -19.675  61.576 -16.397  0.00  0.00    +0.000 C 
ATOM      9  C8  UNL     1     -19.179  62.224 -15.090  0.00  0.00    +0.000 C 
ATOM     10  C9  UNL     1     -21.050  60.919 -16.165  0.00  0.00    +0.000 C 
ENDROOT
TORSDOF 0
ENDMDL
MODEL 4
REMARK VINA RESULT:      -4.8      0.691      2.521
REMARK  Name = .\Carvone.pdb
REMARK  3 active torsions:
REMARK  status: ('A' for Active; 'I' for Inactive)
REMARK    1  A    between atoms: C1_1  and  C2_2
REMARK    2  A    between atoms: C7_8  and  C8_9
REMARK    3  A    between atoms: C7_8  and  C9_10
REMARK                            x       y       z     vdW  Elec       q    Type
REMARK                         _______ _______ _______ _____ _____    ______ ____
ROOT
ATOM      1  C1  UNL     1     -19.269  61.383 -14.619  0.00  0.00    +0.000 C 
ATOM      2  C2  UNL     1     -18.660  60.767 -15.855  0.00  0.00    +0.000 C 
ATOM      3  C3  UNL     1     -18.083  59.562 -15.722  0.00  0.00    +0.000 C 
ATOM      4  C4  UNL     1     -17.465  58.886 -16.864  0.00  0.00    +0.000 C 
ATOM      5  O1  UNL     1     -16.930  57.755 -16.716  0.00  0.00    +0.000 OA
ATOM      6  C5  UNL     1     -17.472  59.527 -18.175  0.00  0.00    +0.000 C 
ATOM      7  C6  UNL     1     -18.037  60.723 -18.339  0.00  0.00    +0.000 C 
ATOM      8  C7  UNL     1     -18.703  61.501 -17.210  0.00  0.00    +0.000 C 
ATOM      9  C8  UNL     1     -17.968  62.851 -17.088  0.00  0.00    +0.000 C 
ATOM     10  C9  UNL     1     -20.169  61.740 -17.620  0.00  0.00    +0.000 C 
ENDROOT
TORSDOF 0
ENDMDL
MODEL 5
REMARK VINA RESULT:      -4.5      2.573      3.618
REMARK  Name = .\Carvone.pdb
REMARK  3 active torsions:
REMARK  status: ('A' for Active; 'I' for Inactive)
REMARK    1  A    between atoms: C1_1  and  C2_2
REMARK    2  A    between atoms: C7_8  and  C8_9
REMARK    3  A    between atoms: C7_8  and  C9_10
REMARK                            x       y       z     vdW  Elec       q    Type
REMARK                         _______ _______ _______ _____ _____    ______ ____
ROOT
ATOM      1  C1  UNL     1     -18.624  61.704 -18.565  0.00  0.00    +0.000 C 
ATOM      2  C2  UNL     1     -18.625  62.017 -17.088  0.00  0.00    +0.000 C 
ATOM      3  C3  UNL     1     -18.154  63.217 -16.713  0.00  0.00    +0.000 C 
ATOM      4  C4  UNL     1     -18.115  63.611 -15.303  0.00  0.00    +0.000 C 
ATOM      5  O1  UNL     1     -17.669  64.742 -14.975  0.00  0.00    +0.000 OA
ATOM      6  C5  UNL     1     -18.595  62.687 -14.280  0.00  0.00    +0.000 C 
ATOM      7  C6  UNL     1     -19.070  61.489 -14.621  0.00  0.00    +0.000 C 
ATOM      8  C7  UNL     1     -19.148  60.994 -16.061  0.00  0.00    +0.000 C 
ATOM      9  C8  UNL     1     -18.310  59.703 -16.148  0.00  0.00    +0.000 C 
ATOM     10  C9  UNL     1     -20.627  60.677 -16.357  0.00  0.00    +0.000 C 
ENDROOT
TORSDOF 0
ENDMDL
MODEL 6
REMARK VINA RESULT:      -4.5      2.507      4.004
REMARK  Name = .\Carvone.pdb
REMARK  3 active torsions:
REMARK  status: ('A' for Active; 'I' for Inactive)
REMARK    1  A    between atoms: C1_1  and  C2_2
REMARK    2  A    between atoms: C7_8  and  C8_9
REMARK    3  A    between atoms: C7_8  and  C9_10
REMARK                            x       y       z     vdW  Elec       q    Type
REMARK                         _______ _______ _______ _____ _____    ______ ____
ROOT
ATOM      1  C1  UNL     1     -18.758  62.561 -14.358  0.00  0.00    +0.000 C 
ATOM      2  C2  UNL     1     -18.536  62.473 -15.848  0.00  0.00    +0.000 C 
ATOM      3  C3  UNL     1     -17.896  63.495 -16.437  0.00  0.00    +0.000 C 
ATOM      4  C4  UNL     1     -17.634  63.500 -17.877  0.00  0.00    +0.000 C 
ATOM      5  O1  UNL     1     -17.031  64.470 -18.408  0.00  0.00    +0.000 OA
ATOM      6  C5  UNL     1     -18.076  62.375 -18.696  0.00  0.00    +0.000 C 
ATOM      7  C6  UNL     1     -18.714  61.345 -18.141  0.00  0.00    +0.000 C 
ATOM      8  C7  UNL     1     -19.029  61.254 -16.653  0.00  0.00    +0.000 C 
ATOM      9  C8  UNL     1     -20.560  61.131 -16.515  0.00  0.00    +0.000 C 
ATOM     10  C9  UNL     1     -18.353  59.976 -16.118  0.00  0.00    +0.000 C 
ENDROOT
TORSDOF 0
ENDMDL
MODEL 7
REMARK VINA RESULT:      -4.5      1.322      1.683
REMARK  Name = .\Carvone.pdb
REMARK  3 active torsions:
REMARK  status: ('A' for Active; 'I' for Inactive)
REMARK    1  A    between atoms: C1_1  and  C2_2
REMARK    2  A    between atoms: C7_8  and  C8_9
REMARK    3  A    between atoms: C7_8  and  C9_10
REMARK                            x       y       z     vdW  Elec       q    Type
REMARK                         _______ _______ _______ _____ _____    ______ ____
ROOT
ATOM      1  C1  UNL     1     -18.783  62.377 -18.878  0.00  0.00    +0.000 C 
ATOM      2  C2  UNL     1     -18.874  61.918 -17.443  0.00  0.00    +0.000 C 
ATOM      3  C3  UNL     1     -18.686  60.611 -17.202  0.00  0.00    +0.000 C 
ATOM      4  C4  UNL     1     -18.754  60.071 -15.843  0.00  0.00    +0.000 C 
ATOM      5  O1  UNL     1     -18.574  58.841 -15.640  0.00  0.00    +0.000 OA
ATOM      6  C5  UNL     1     -19.033  60.965 -14.723  0.00  0.00    +0.000 C 
ATOM      7  C6  UNL     1     -19.223  62.268 -14.929  0.00  0.00    +0.000 C 
ATOM      8  C7  UNL     1     -19.171  62.917 -16.308  0.00  0.00    +0.000 C 
ATOM      9  C8  UNL     1     -20.539  63.583 -16.553  0.00  0.00    +0.000 C 
ATOM     10  C9  UNL     1     -18.068  63.993 -16.266  0.00  0.00    +0.000 C 
ENDROOT
TORSDOF 0
ENDMDL
MODEL 8
REMARK VINA RESULT:      -4.4      1.481      2.900
REMARK  Name = .\Carvone.pdb
REMARK  3 active torsions:
REMARK  status: ('A' for Active; 'I' for Inactive)
REMARK    1  A    between atoms: C1_1  and  C2_2
REMARK    2  A    between atoms: C7_8  and  C8_9
REMARK    3  A    between atoms: C7_8  and  C9_10
REMARK                            x       y       z     vdW  Elec       q    Type
REMARK                         _______ _______ _______ _____ _____    ______ ____
ROOT
ATOM      1  C1  UNL     1     -20.168  63.685 -15.392  0.00  0.00    +0.000 C 
ATOM      2  C2  UNL     1     -19.527  62.468 -16.012  0.00  0.00    +0.000 C 
ATOM      3  C3  UNL     1     -19.378  61.385 -15.232  0.00  0.00    +0.000 C 
ATOM      4  C4  UNL     1     -18.768  60.157 -15.744  0.00  0.00    +0.000 C 
ATOM      5  O1  UNL     1     -18.638  59.154 -14.994  0.00  0.00    +0.000 OA
ATOM      6  C5  UNL     1     -18.310  60.101 -17.129  0.00  0.00    +0.000 C 
ATOM      7  C6  UNL     1     -18.444  61.158 -17.930  0.00  0.00    +0.000 C 
ATOM      8  C7  UNL     1     -19.067  62.477 -17.483  0.00  0.00    +0.000 C 
ATOM      9  C8  UNL     1     -18.004  63.576 -17.683  0.00  0.00    +0.000 C 
ATOM     10  C9  UNL     1     -20.275  62.746 -18.400  0.00  0.00    +0.000 C 
ENDROOT
TORSDOF 0
ENDMDL
MODEL 9
REMARK VINA RESULT:      -4.4      2.638      3.878
REMARK  Name = .\Carvone.pdb
REMARK  3 active torsions:
REMARK  status: ('A' for Active; 'I' for Inactive)
REMARK    1  A    between atoms: C1_1  and  C2_2
REMARK    2  A    between atoms: C7_8  and  C8_9
REMARK    3  A    between atoms: C7_8  and  C9_10
REMARK                            x       y       z     vdW  Elec       q    Type
REMARK                         _______ _______ _______ _____ _____    ______ ____
ROOT
ATOM      1  C1  UNL     1     -21.063  63.762 -16.175  0.00  0.00    +0.000 C 
ATOM      2  C2  UNL     1     -20.134  62.967 -17.059  0.00  0.00    +0.000 C 
ATOM      3  C3  UNL     1     -19.937  63.418 -18.308  0.00  0.00    +0.000 C 
ATOM      4  C4  UNL     1     -19.053  62.716 -19.240  0.00  0.00    +0.000 C 
ATOM      5  O1  UNL     1     -18.883  63.158 -20.406  0.00  0.00    +0.000 OA
ATOM      6  C5  UNL     1     -18.369  61.500 -18.810  0.00  0.00    +0.000 C 
ATOM      7  C6  UNL     1     -18.543  61.027 -17.575  0.00  0.00    +0.000 C 
ATOM      8  C7  UNL     1     -19.443  61.691 -16.540  0.00  0.00    +0.000 C 
ATOM      9  C8  UNL     1     -20.512  60.657 -16.131  0.00  0.00    +0.000 C 
ATOM     10  C9  UNL     1     -18.563  62.040 -15.324  0.00  0.00    +0.000 C 
ENDROOT
TORSDOF 0
ENDMDL
