MODEL 1
REMARK VINA RESULT:      -3.6      0.000      0.000
REMARK  Name = .\Carvone.pdb
REMARK  3 active torsions:
REMARK  status: ('A' for Active; 'I' for Inactive)
REMARK    1  A    between atoms: C1_1  and  C2_2
REMARK    2  A    between atoms: C7_8  and  C8_9
REMARK    3  A    between atoms: C7_8  and  C9_10
REMARK                            x       y       z     vdW  Elec       q    Type
REMARK                         _______ _______ _______ _____ _____    ______ ____
ROOT
ATOM      1  C1  UNL     1       6.697  79.334  57.445  0.00  0.00    +0.000 C 
ATOM      2  C2  UNL     1       7.717  79.323  58.557  0.00  0.00    +0.000 C 
ATOM      3  C3  UNL     1       8.096  78.127  59.033  0.00  0.00    +0.000 C 
ATOM      4  C4  UNL     1       9.080  78.015  60.111  0.00  0.00    +0.000 C 
ATOM      5  O1  UNL     1       9.421  76.881  60.542  0.00  0.00    +0.000 OA
ATOM      6  C5  UNL     1       9.665  79.223  60.685  0.00  0.00    +0.000 C 
ATOM      7  C6  UNL     1       9.310  80.426  60.233  0.00  0.00    +0.000 C 
ATOM      8  C7  UNL     1       8.295  80.638  59.116  0.00  0.00    +0.000 C 
ATOM      9  C8  UNL     1       7.153  81.498  59.693  0.00  0.00    +0.000 C 
ATOM     10  C9  UNL     1       9.009  81.408  57.988  0.00  0.00    +0.000 C 
ENDROOT
TORSDOF 0
ENDMDL
MODEL 2
REMARK VINA RESULT:      -3.5      1.160      1.334
REMARK  Name = .\Carvone.pdb
REMARK  3 active torsions:
REMARK  status: ('A' for Active; 'I' for Inactive)
REMARK    1  A    between atoms: C1_1  and  C2_2
REMARK    2  A    between atoms: C7_8  and  C8_9
REMARK    3  A    between atoms: C7_8  and  C9_10
REMARK                            x       y       z     vdW  Elec       q    Type
REMARK                         _______ _______ _______ _____ _____    ______ ____
ROOT
ATOM      1  C1  UNL     1       7.726  77.577  57.969  0.00  0.00    +0.000 C 
ATOM      2  C2  UNL     1       8.490  78.245  59.086  0.00  0.00    +0.000 C 
ATOM      3  C3  UNL     1       9.244  77.460  59.871  0.00  0.00    +0.000 C 
ATOM      4  C4  UNL     1      10.021  78.017  60.980  0.00  0.00    +0.000 C 
ATOM      5  O1  UNL     1      10.723  77.262  61.703  0.00  0.00    +0.000 OA
ATOM      6  C5  UNL     1       9.979  79.452  61.244  0.00  0.00    +0.000 C 
ATOM      7  C6  UNL     1       9.240  80.258  60.481  0.00  0.00    +0.000 C 
ATOM      8  C7  UNL     1       8.400  79.768  59.308  0.00  0.00    +0.000 C 
ATOM      9  C8  UNL     1       6.937  80.161  59.595  0.00  0.00    +0.000 C 
ATOM     10  C9  UNL     1       8.899  80.502  58.048  0.00  0.00    +0.000 C 
ENDROOT
TORSDOF 0
ENDMDL
MODEL 3
REMARK VINA RESULT:      -3.5      1.825      3.330
REMARK  Name = .\Carvone.pdb
REMARK  3 active torsions:
REMARK  status: ('A' for Active; 'I' for Inactive)
REMARK    1  A    between atoms: C1_1  and  C2_2
REMARK    2  A    between atoms: C7_8  and  C8_9
REMARK    3  A    between atoms: C7_8  and  C9_10
REMARK                            x       y       z     vdW  Elec       q    Type
REMARK                         _______ _______ _______ _____ _____    ______ ____
ROOT
ATOM      1  C1  UNL     1       9.620  76.754  59.519  0.00  0.00    +0.000 C 
ATOM      2  C2  UNL     1       9.074  78.161  59.499  0.00  0.00    +0.000 C 
ATOM      3  C3  UNL     1       7.963  78.381  58.779  0.00  0.00    +0.000 C 
ATOM      4  C4  UNL     1       7.360  79.712  58.699  0.00  0.00    +0.000 C 
ATOM      5  O1  UNL     1       6.317  79.895  58.017  0.00  0.00    +0.000 OA
ATOM      6  C5  UNL     1       7.973  80.828  59.415  0.00  0.00    +0.000 C 
ATOM      7  C6  UNL     1       9.076  80.642  60.139  0.00  0.00    +0.000 C 
ATOM      8  C7  UNL     1       9.772  79.293  60.279  0.00  0.00    +0.000 C 
ATOM      9  C8  UNL     1      11.213  79.465  59.758  0.00  0.00    +0.000 C 
ATOM     10  C9  UNL     1       9.799  78.944  61.780  0.00  0.00    +0.000 C 
ENDROOT
TORSDOF 0
ENDMDL
MODEL 4
REMARK VINA RESULT:      -3.5      1.980      3.879
REMARK  Name = .\Carvone.pdb
REMARK  3 active torsions:
REMARK  status: ('A' for Active; 'I' for Inactive)
REMARK    1  A    between atoms: C1_1  and  C2_2
REMARK    2  A    between atoms: C7_8  and  C8_9
REMARK    3  A    between atoms: C7_8  and  C9_10
REMARK                            x       y       z     vdW  Elec       q    Type
REMARK                         _______ _______ _______ _____ _____    ______ ____
ROOT
ATOM      1  C1  UNL     1      11.106  79.848  61.031  0.00  0.00    +0.000 C 
ATOM      2  C2  UNL     1       9.845  79.445  60.305  0.00  0.00    +0.000 C 
ATOM      3  C3  UNL     1       8.858  80.352  60.237  0.00  0.00    +0.000 C 
ATOM      4  C4  UNL     1       7.597  80.054  59.555  0.00  0.00    +0.000 C 
ATOM      5  O1  UNL     1       6.685  80.921  59.503  0.00  0.00    +0.000 OA
ATOM      6  C5  UNL     1       7.403  78.747  58.934  0.00  0.00    +0.000 C 
ATOM      7  C6  UNL     1       8.364  77.826  58.984  0.00  0.00    +0.000 C 
ATOM      8  C7  UNL     1       9.707  78.047  59.672  0.00  0.00    +0.000 C 
ATOM      9  C8  UNL     1       9.844  76.970  60.766  0.00  0.00    +0.000 C 
ATOM     10  C9  UNL     1      10.804  77.853  58.608  0.00  0.00    +0.000 C 
ENDROOT
TORSDOF 0
ENDMDL
MODEL 5
REMARK VINA RESULT:      -3.3      1.383      2.828
REMARK  Name = .\Carvone.pdb
REMARK  3 active torsions:
REMARK  status: ('A' for Active; 'I' for Inactive)
REMARK    1  A    between atoms: C1_1  and  C2_2
REMARK    2  A    between atoms: C7_8  and  C8_9
REMARK    3  A    between atoms: C7_8  and  C9_10
REMARK                            x       y       z     vdW  Elec       q    Type
REMARK                         _______ _______ _______ _____ _____    ______ ____
ROOT
ATOM      1  C1  UNL     1       8.307  81.147  59.689  0.00  0.00    +0.000 C 
ATOM      2  C2  UNL     1       8.846  79.760  59.947  0.00  0.00    +0.000 C 
ATOM      3  C3  UNL     1       9.510  79.562  61.096  0.00  0.00    +0.000 C 
ATOM      4  C4  UNL     1      10.069  78.252  61.434  0.00  0.00    +0.000 C 
ATOM      5  O1  UNL     1      10.689  78.089  62.518  0.00  0.00    +0.000 OA
ATOM      6  C5  UNL     1       9.905  77.135  60.508  0.00  0.00    +0.000 C 
ATOM      7  C6  UNL     1       9.250  77.300  59.359  0.00  0.00    +0.000 C 
ATOM      8  C7  UNL     1       8.636  78.626  58.925  0.00  0.00    +0.000 C 
ATOM      9  C8  UNL     1       9.287  79.014  57.583  0.00  0.00    +0.000 C 
ATOM     10  C9  UNL     1       7.127  78.387  58.723  0.00  0.00    +0.000 C 
ENDROOT
TORSDOF 0
ENDMDL
MODEL 6
REMARK VINA RESULT:      -3.3      2.380      3.798
REMARK  Name = .\Carvone.pdb
REMARK  3 active torsions:
REMARK  status: ('A' for Active; 'I' for Inactive)
REMARK    1  A    between atoms: C1_1  and  C2_2
REMARK    2  A    between atoms: C7_8  and  C8_9
REMARK    3  A    between atoms: C7_8  and  C9_10
REMARK                            x       y       z     vdW  Elec       q    Type
REMARK                         _______ _______ _______ _____ _____    ______ ____
ROOT
ATOM      1  C1  UNL     1      11.525  79.646  58.714  0.00  0.00    +0.000 C 
ATOM      2  C2  UNL     1      10.050  79.921  58.878  0.00  0.00    +0.000 C 
ATOM      3  C3  UNL     1       9.511  80.875  58.102  0.00  0.00    +0.000 C 
ATOM      4  C4  UNL     1       8.089  81.213  58.189  0.00  0.00    +0.000 C 
ATOM      5  O1  UNL     1       7.606  82.111  57.451  0.00  0.00    +0.000 OA
ATOM      6  C5  UNL     1       7.234  80.503  59.135  0.00  0.00    +0.000 C 
ATOM      7  C6  UNL     1       7.738  79.550  59.918  0.00  0.00    +0.000 C 
ATOM      8  C7  UNL     1       9.204  79.132  59.897  0.00  0.00    +0.000 C 
ATOM      9  C8  UNL     1       9.765  79.358  61.315  0.00  0.00    +0.000 C 
ATOM     10  C9  UNL     1       9.249  77.631  59.551  0.00  0.00    +0.000 C 
ENDROOT
TORSDOF 0
ENDMDL
MODEL 7
REMARK VINA RESULT:      -3.2      1.834      2.827
REMARK  Name = .\Carvone.pdb
REMARK  3 active torsions:
REMARK  status: ('A' for Active; 'I' for Inactive)
REMARK    1  A    between atoms: C1_1  and  C2_2
REMARK    2  A    between atoms: C7_8  and  C8_9
REMARK    3  A    between atoms: C7_8  and  C9_10
REMARK                            x       y       z     vdW  Elec       q    Type
REMARK                         _______ _______ _______ _____ _____    ______ ____
ROOT
ATOM      1  C1  UNL     1       6.923  80.327  59.515  0.00  0.00    +0.000 C 
ATOM      2  C2  UNL     1       8.345  79.825  59.448  0.00  0.00    +0.000 C 
ATOM      3  C3  UNL     1       9.187  80.229  60.412  0.00  0.00    +0.000 C 
ATOM      4  C4  UNL     1      10.585  79.795  60.431  0.00  0.00    +0.000 C 
ATOM      5  O1  UNL     1      11.357  80.186  61.346  0.00  0.00    +0.000 OA
ATOM      6  C5  UNL     1      11.081  78.906  59.385  0.00  0.00    +0.000 C 
ATOM      7  C6  UNL     1      10.269  78.487  58.414  0.00  0.00    +0.000 C 
ATOM      8  C7  UNL     1       8.801  78.886  58.313  0.00  0.00    +0.000 C 
ATOM      9  C8  UNL     1       8.610  79.589  56.955  0.00  0.00    +0.000 C 
ATOM     10  C9  UNL     1       7.970  77.590  58.351  0.00  0.00    +0.000 C 
ENDROOT
TORSDOF 0
ENDMDL
MODEL 8
REMARK VINA RESULT:      -3.2      2.357      3.689
REMARK  Name = .\Carvone.pdb
REMARK  3 active torsions:
REMARK  status: ('A' for Active; 'I' for Inactive)
REMARK    1  A    between atoms: C1_1  and  C2_2
REMARK    2  A    between atoms: C7_8  and  C8_9
REMARK    3  A    between atoms: C7_8  and  C9_10
REMARK                            x       y       z     vdW  Elec       q    Type
REMARK                         _______ _______ _______ _____ _____    ______ ____
ROOT
ATOM      1  C1  UNL     1      10.493  79.424  57.407  0.00  0.00    +0.000 C 
ATOM      2  C2  UNL     1       9.243  79.757  58.183  0.00  0.00    +0.000 C 
ATOM      3  C3  UNL     1       8.874  81.047  58.231  0.00  0.00    +0.000 C 
ATOM      4  C4  UNL     1       7.676  81.468  58.959  0.00  0.00    +0.000 C 
ATOM      5  O1  UNL     1       7.349  82.684  58.990  0.00  0.00    +0.000 OA
ATOM      6  C5  UNL     1       6.862  80.473  59.650  0.00  0.00    +0.000 C 
ATOM      7  C6  UNL     1       7.201  79.184  59.621  0.00  0.00    +0.000 C 
ATOM      8  C7  UNL     1       8.430  78.655  58.889  0.00  0.00    +0.000 C 
ATOM      9  C8  UNL     1       9.317  77.949  59.934  0.00  0.00    +0.000 C 
ATOM     10  C9  UNL     1       7.937  77.631  57.847  0.00  0.00    +0.000 C 
ENDROOT
TORSDOF 0
ENDMDL
MODEL 9
REMARK VINA RESULT:      -3.1      3.096      4.408
REMARK  Name = .\Carvone.pdb
REMARK  3 active torsions:
REMARK  status: ('A' for Active; 'I' for Inactive)
REMARK    1  A    between atoms: C1_1  and  C2_2
REMARK    2  A    between atoms: C7_8  and  C8_9
REMARK    3  A    between atoms: C7_8  and  C9_10
REMARK                            x       y       z     vdW  Elec       q    Type
REMARK                         _______ _______ _______ _____ _____    ______ ____
ROOT
ATOM      1  C1  UNL     1       9.118  80.311  57.083  0.00  0.00    +0.000 C 
ATOM      2  C2  UNL     1       8.508  81.394  57.938  0.00  0.00    +0.000 C 
ATOM      3  C3  UNL     1       8.461  82.633  57.424  0.00  0.00    +0.000 C 
ATOM      4  C4  UNL     1       7.888  83.749  58.178  0.00  0.00    +0.000 C 
ATOM      5  O1  UNL     1       7.855  84.903  57.675  0.00  0.00    +0.000 OA
ATOM      6  C5  UNL     1       7.355  83.518  59.518  0.00  0.00    +0.000 C 
ATOM      7  C6  UNL     1       7.385  82.299  60.056  0.00  0.00    +0.000 C 
ATOM      8  C7  UNL     1       7.962  81.080  59.345  0.00  0.00    +0.000 C 
ATOM      9  C8  UNL     1       9.100  80.531  60.228  0.00  0.00    +0.000 C 
ATOM     10  C9  UNL     1       6.834  80.035  59.239  0.00  0.00    +0.000 C 
ENDROOT
TORSDOF 0
ENDMDL
