MODEL 1
REMARK VINA RESULT:      -4.5      0.000      0.000
REMARK  Name = .\Carvacrol.pdb
REMARK  5 active torsions:
REMARK  status: ('A' for Active; 'I' for Inactive)
REMARK    1  A    between atoms: C1_1  and  C2_2
REMARK    2  A    between atoms: C2_2  and  C3_3
REMARK    3  A    between atoms: C2_2  and  C4_4
REMARK    4  A    between atoms: C6_6  and  O1_11
REMARK    5  A    between atoms: C7_7  and  C10_10
REMARK                            x       y       z     vdW  Elec       q    Type
REMARK                         _______ _______ _______ _____ _____    ______ ____
ROOT
ATOM      1  C4  UNL     1     -15.053  77.198  62.213  0.00  0.00    +0.000 A 
ATOM      2  C5  UNL     1     -15.163  76.187  61.244  0.00  0.00    +0.000 A 
ATOM      3  C6  UNL     1     -14.754  76.415  59.922  0.00  0.00    +0.000 A 
ATOM      4  C7  UNL     1     -14.229  77.666  59.555  0.00  0.00    +0.000 A 
ATOM      5  C8  UNL     1     -14.119  78.678  60.521  0.00  0.00    +0.000 A 
ATOM      6  C9  UNL     1     -14.527  78.447  61.837  0.00  0.00    +0.000 A 
ATOM      7  C10 UNL     1     -13.790  77.918  58.141  0.00  0.00    +0.000 C 
ENDROOT
BRANCH   1   9
ATOM      8  C1  UNL     1     -16.248  78.142  64.216  0.00  0.00    +0.000 C 
ATOM      9  C2  UNL     1     -15.500  76.934  63.639  0.00  0.00    +0.000 C 
ATOM     10  C3  UNL     1     -16.354  75.663  63.725  0.00  0.00    +0.000 C 
ENDBRANCH   1   9
BRANCH   3  11
ATOM     11  O1  UNL     1     -14.870  75.401  58.970  0.00  0.00    +0.000 OA
ATOM     12  H14 UNL     1     -15.720  75.270  58.434  0.00  0.00    +0.000 HD
ENDBRANCH   3  11
TORSDOF 2
ENDMDL
MODEL 2
REMARK VINA RESULT:      -4.4      2.071      4.421
REMARK  Name = .\Carvacrol.pdb
REMARK  5 active torsions:
REMARK  status: ('A' for Active; 'I' for Inactive)
REMARK    1  A    between atoms: C1_1  and  C2_2
REMARK    2  A    between atoms: C2_2  and  C3_3
REMARK    3  A    between atoms: C2_2  and  C4_4
REMARK    4  A    between atoms: C6_6  and  O1_11
REMARK    5  A    between atoms: C7_7  and  C10_10
REMARK                            x       y       z     vdW  Elec       q    Type
REMARK                         _______ _______ _______ _____ _____    ______ ____
ROOT
ATOM      1  C4  UNL     1     -14.662  77.704  61.500  0.00  0.00    +0.000 A 
ATOM      2  C5  UNL     1     -15.280  76.907  62.478  0.00  0.00    +0.000 A 
ATOM      3  C6  UNL     1     -15.808  77.484  63.643  0.00  0.00    +0.000 A 
ATOM      4  C7  UNL     1     -15.720  78.873  63.841  0.00  0.00    +0.000 A 
ATOM      5  C8  UNL     1     -15.103  79.671  62.865  0.00  0.00    +0.000 A 
ATOM      6  C9  UNL     1     -14.580  79.093  61.706  0.00  0.00    +0.000 A 
ATOM      7  C10 UNL     1     -16.283  79.497  65.086  0.00  0.00    +0.000 C 
ENDROOT
BRANCH   1   9
ATOM      8  C1  UNL     1     -15.033  75.975  59.711  0.00  0.00    +0.000 C 
ATOM      9  C2  UNL     1     -14.097  77.064  60.246  0.00  0.00    +0.000 C 
ATOM     10  C3  UNL     1     -13.805  78.118  59.170  0.00  0.00    +0.000 C 
ENDBRANCH   1   9
BRANCH   3  11
ATOM     11  O1  UNL     1     -16.418  76.679  64.606  0.00  0.00    +0.000 OA
ATOM     12  H14 UNL     1     -16.031  75.780  64.869  0.00  0.00    +0.000 HD
ENDBRANCH   3  11
TORSDOF 2
ENDMDL
MODEL 3
REMARK VINA RESULT:      -4.3      2.350      4.780
REMARK  Name = .\Carvacrol.pdb
REMARK  5 active torsions:
REMARK  status: ('A' for Active; 'I' for Inactive)
REMARK    1  A    between atoms: C1_1  and  C2_2
REMARK    2  A    between atoms: C2_2  and  C3_3
REMARK    3  A    between atoms: C2_2  and  C4_4
REMARK    4  A    between atoms: C6_6  and  O1_11
REMARK    5  A    between atoms: C7_7  and  C10_10
REMARK                            x       y       z     vdW  Elec       q    Type
REMARK                         _______ _______ _______ _____ _____    ______ ____
ROOT
ATOM      1  C4  UNL     1     -14.725  77.655  61.596  0.00  0.00    +0.000 A 
ATOM      2  C5  UNL     1     -14.529  79.010  61.913  0.00  0.00    +0.000 A 
ATOM      3  C6  UNL     1     -15.069  79.557  63.086  0.00  0.00    +0.000 A 
ATOM      4  C7  UNL     1     -15.817  78.747  63.958  0.00  0.00    +0.000 A 
ATOM      5  C8  UNL     1     -16.014  77.394  63.644  0.00  0.00    +0.000 A 
ATOM      6  C9  UNL     1     -15.474  76.853  62.475  0.00  0.00    +0.000 A 
ATOM      7  C10 UNL     1     -16.399  79.326  65.216  0.00  0.00    +0.000 C 
ENDROOT
BRANCH   1   9
ATOM      8  C1  UNL     1     -15.026  75.974  59.749  0.00  0.00    +0.000 C 
ATOM      9  C2  UNL     1     -14.133  77.080  60.323  0.00  0.00    +0.000 C 
ATOM     10  C3  UNL     1     -13.879  78.180  59.285  0.00  0.00    +0.000 C 
ENDBRANCH   1   9
BRANCH   3  11
ATOM     11  O1  UNL     1     -14.867  80.904  63.386  0.00  0.00    +0.000 OA
ATOM     12  H14 UNL     1     -15.064  81.635  62.712  0.00  0.00    +0.000 HD
ENDBRANCH   3  11
TORSDOF 2
ENDMDL
MODEL 4
REMARK VINA RESULT:      -4.2      1.868      2.923
REMARK  Name = .\Carvacrol.pdb
REMARK  5 active torsions:
REMARK  status: ('A' for Active; 'I' for Inactive)
REMARK    1  A    between atoms: C1_1  and  C2_2
REMARK    2  A    between atoms: C2_2  and  C3_3
REMARK    3  A    between atoms: C2_2  and  C4_4
REMARK    4  A    between atoms: C6_6  and  O1_11
REMARK    5  A    between atoms: C7_7  and  C10_10
REMARK                            x       y       z     vdW  Elec       q    Type
REMARK                         _______ _______ _______ _____ _____    ______ ____
ROOT
ATOM      1  C4  UNL     1     -15.267  79.067  62.934  0.00  0.00    +0.000 A 
ATOM      2  C5  UNL     1     -14.686  79.414  61.702  0.00  0.00    +0.000 A 
ATOM      3  C6  UNL     1     -14.554  78.463  60.680  0.00  0.00    +0.000 A 
ATOM      4  C7  UNL     1     -15.005  77.148  60.882  0.00  0.00    +0.000 A 
ATOM      5  C8  UNL     1     -15.586  76.799  62.111  0.00  0.00    +0.000 A 
ATOM      6  C9  UNL     1     -15.716  77.749  63.127  0.00  0.00    +0.000 A 
ATOM      7  C10 UNL     1     -14.867  76.124  59.791  0.00  0.00    +0.000 C 
ENDROOT
BRANCH   1   9
ATOM      8  C1  UNL     1     -15.783  81.475  63.449  0.00  0.00    +0.000 C 
ATOM      9  C2  UNL     1     -15.402  80.108  64.029  0.00  0.00    +0.000 C 
ATOM     10  C3  UNL     1     -16.409  79.661  65.096  0.00  0.00    +0.000 C 
ENDBRANCH   1   9
BRANCH   3  11
ATOM     11  O1  UNL     1     -13.974  78.823  59.463  0.00  0.00    +0.000 OA
ATOM     12  H14 UNL     1     -12.975  78.748  59.307  0.00  0.00    +0.000 HD
ENDBRANCH   3  11
TORSDOF 2
ENDMDL
MODEL 5
REMARK VINA RESULT:      -4.2      1.612      2.215
REMARK  Name = .\Carvacrol.pdb
REMARK  5 active torsions:
REMARK  status: ('A' for Active; 'I' for Inactive)
REMARK    1  A    between atoms: C1_1  and  C2_2
REMARK    2  A    between atoms: C2_2  and  C3_3
REMARK    3  A    between atoms: C2_2  and  C4_4
REMARK    4  A    between atoms: C6_6  and  O1_11
REMARK    5  A    between atoms: C7_7  and  C10_10
REMARK                            x       y       z     vdW  Elec       q    Type
REMARK                         _______ _______ _______ _____ _____    ______ ____
ROOT
ATOM      1  C4  UNL     1     -15.523  78.466  61.851  0.00  0.00    +0.000 A 
ATOM      2  C5  UNL     1     -16.197  78.624  60.628  0.00  0.00    +0.000 A 
ATOM      3  C6  UNL     1     -15.617  78.185  59.429  0.00  0.00    +0.000 A 
ATOM      4  C7  UNL     1     -14.348  77.580  59.443  0.00  0.00    +0.000 A 
ATOM      5  C8  UNL     1     -13.673  77.420  60.663  0.00  0.00    +0.000 A 
ATOM      6  C9  UNL     1     -14.254  77.858  61.855  0.00  0.00    +0.000 A 
ATOM      7  C10 UNL     1     -13.721  77.107  58.162  0.00  0.00    +0.000 C 
ENDROOT
BRANCH   1   9
ATOM      8  C1  UNL     1     -16.175  77.838  64.199  0.00  0.00    +0.000 C 
ATOM      9  C2  UNL     1     -16.165  78.946  63.139  0.00  0.00    +0.000 C 
ATOM     10  C3  UNL     1     -15.471  80.208  63.666  0.00  0.00    +0.000 C 
ENDBRANCH   1   9
BRANCH   3  11
ATOM     11  O1  UNL     1     -16.297  78.350  58.222  0.00  0.00    +0.000 OA
ATOM     12  H14 UNL     1     -15.867  78.121  57.334  0.00  0.00    +0.000 HD
ENDBRANCH   3  11
TORSDOF 2
ENDMDL
MODEL 6
REMARK VINA RESULT:      -4.1      1.063      4.221
REMARK  Name = .\Carvacrol.pdb
REMARK  5 active torsions:
REMARK  status: ('A' for Active; 'I' for Inactive)
REMARK    1  A    between atoms: C1_1  and  C2_2
REMARK    2  A    between atoms: C2_2  and  C3_3
REMARK    3  A    between atoms: C2_2  and  C4_4
REMARK    4  A    between atoms: C6_6  and  O1_11
REMARK    5  A    between atoms: C7_7  and  C10_10
REMARK                            x       y       z     vdW  Elec       q    Type
REMARK                         _______ _______ _______ _____ _____    ______ ____
ROOT
ATOM      1  C4  UNL     1     -14.284  77.781  59.708  0.00  0.00    +0.000 A 
ATOM      2  C5  UNL     1     -14.713  76.466  59.955  0.00  0.00    +0.000 A 
ATOM      3  C6  UNL     1     -15.111  76.073  61.241  0.00  0.00    +0.000 A 
ATOM      4  C7  UNL     1     -15.082  76.998  62.299  0.00  0.00    +0.000 A 
ATOM      5  C8  UNL     1     -14.654  78.312  62.054  0.00  0.00    +0.000 A 
ATOM      6  C9  UNL     1     -14.258  78.700  60.771  0.00  0.00    +0.000 A 
ATOM      7  C10 UNL     1     -15.507  76.585  63.679  0.00  0.00    +0.000 C 
ENDROOT
BRANCH   1   9
ATOM      8  C1  UNL     1     -12.798  79.297  58.357  0.00  0.00    +0.000 C 
ATOM      9  C2  UNL     1     -13.857  78.190  58.310  0.00  0.00    +0.000 C 
ATOM     10  C3  UNL     1     -13.357  76.981  57.509  0.00  0.00    +0.000 C 
ENDBRANCH   1   9
BRANCH   3  11
ATOM     11  O1  UNL     1     -15.535  74.764  61.472  0.00  0.00    +0.000 OA
ATOM     12  H14 UNL     1     -15.998  74.221  60.752  0.00  0.00    +0.000 HD
ENDBRANCH   3  11
TORSDOF 2
ENDMDL
MODEL 7
REMARK VINA RESULT:      -4.1      1.541      2.147
REMARK  Name = .\Carvacrol.pdb
REMARK  5 active torsions:
REMARK  status: ('A' for Active; 'I' for Inactive)
REMARK    1  A    between atoms: C1_1  and  C2_2
REMARK    2  A    between atoms: C2_2  and  C3_3
REMARK    3  A    between atoms: C2_2  and  C4_4
REMARK    4  A    between atoms: C6_6  and  O1_11
REMARK    5  A    between atoms: C7_7  and  C10_10
REMARK                            x       y       z     vdW  Elec       q    Type
REMARK                         _______ _______ _______ _____ _____    ______ ____
ROOT
ATOM      1  C4  UNL     1     -15.421  76.373  62.088  0.00  0.00    +0.000 A 
ATOM      2  C5  UNL     1     -14.960  77.695  61.973  0.00  0.00    +0.000 A 
ATOM      3  C6  UNL     1     -14.502  78.189  60.743  0.00  0.00    +0.000 A 
ATOM      4  C7  UNL     1     -14.500  77.358  59.609  0.00  0.00    +0.000 A 
ATOM      5  C8  UNL     1     -14.959  76.037  59.722  0.00  0.00    +0.000 A 
ATOM      6  C9  UNL     1     -15.415  75.549  60.949  0.00  0.00    +0.000 A 
ATOM      7  C10 UNL     1     -14.010  77.880  58.289  0.00  0.00    +0.000 C 
ENDROOT
BRANCH   1   9
ATOM      8  C1  UNL     1     -16.534  76.981  64.261  0.00  0.00    +0.000 C 
ATOM      9  C2  UNL     1     -15.914  75.854  63.427  0.00  0.00    +0.000 C 
ATOM     10  C3  UNL     1     -16.901  74.696  63.242  0.00  0.00    +0.000 C 
ENDBRANCH   1   9
BRANCH   3  11
ATOM     11  O1  UNL     1     -14.047  79.504  60.645  0.00  0.00    +0.000 OA
ATOM     12  H14 UNL     1     -14.689  80.286  60.584  0.00  0.00    +0.000 HD
ENDBRANCH   3  11
TORSDOF 2
ENDMDL
MODEL 8
REMARK VINA RESULT:      -4.0      3.047      4.332
REMARK  Name = .\Carvacrol.pdb
REMARK  5 active torsions:
REMARK  status: ('A' for Active; 'I' for Inactive)
REMARK    1  A    between atoms: C1_1  and  C2_2
REMARK    2  A    between atoms: C2_2  and  C3_3
REMARK    3  A    between atoms: C2_2  and  C4_4
REMARK    4  A    between atoms: C6_6  and  O1_11
REMARK    5  A    between atoms: C7_7  and  C10_10
REMARK                            x       y       z     vdW  Elec       q    Type
REMARK                         _______ _______ _______ _____ _____    ______ ____
ROOT
ATOM      1  C4  UNL     1     -15.245  78.112  61.413  0.00  0.00    +0.000 A 
ATOM      2  C5  UNL     1     -14.726  79.030  62.341  0.00  0.00    +0.000 A 
ATOM      3  C6  UNL     1     -15.424  80.205  62.653  0.00  0.00    +0.000 A 
ATOM      4  C7  UNL     1     -16.657  80.475  62.034  0.00  0.00    +0.000 A 
ATOM      5  C8  UNL     1     -17.177  79.560  61.106  0.00  0.00    +0.000 A 
ATOM      6  C9  UNL     1     -16.479  78.390  60.798  0.00  0.00    +0.000 A 
ATOM      7  C10 UNL     1     -17.410  81.732  62.363  0.00  0.00    +0.000 C 
ENDROOT
BRANCH   1   9
ATOM      8  C1  UNL     1     -14.673  75.784  62.175  0.00  0.00    +0.000 C 
ATOM      9  C2  UNL     1     -14.476  76.845  61.087  0.00  0.00    +0.000 C 
ATOM     10  C3  UNL     1     -14.866  76.300  59.707  0.00  0.00    +0.000 C 
ENDBRANCH   1   9
BRANCH   3  11
ATOM     11  O1  UNL     1     -14.895  81.108  63.577  0.00  0.00    +0.000 OA
ATOM     12  H14 UNL     1     -13.979  81.523  63.450  0.00  0.00    +0.000 HD
ENDBRANCH   3  11
TORSDOF 2
ENDMDL
MODEL 9
REMARK VINA RESULT:      -4.0      2.225      4.471
REMARK  Name = .\Carvacrol.pdb
REMARK  5 active torsions:
REMARK  status: ('A' for Active; 'I' for Inactive)
REMARK    1  A    between atoms: C1_1  and  C2_2
REMARK    2  A    between atoms: C2_2  and  C3_3
REMARK    3  A    between atoms: C2_2  and  C4_4
REMARK    4  A    between atoms: C6_6  and  O1_11
REMARK    5  A    between atoms: C7_7  and  C10_10
REMARK                            x       y       z     vdW  Elec       q    Type
REMARK                         _______ _______ _______ _____ _____    ______ ____
ROOT
ATOM      1  C4  UNL     1     -14.952  76.349  61.008  0.00  0.00    +0.000 A 
ATOM      2  C5  UNL     1     -15.024  75.960  62.356  0.00  0.00    +0.000 A 
ATOM      3  C6  UNL     1     -15.994  75.043  62.787  0.00  0.00    +0.000 A 
ATOM      4  C7  UNL     1     -16.907  74.503  61.865  0.00  0.00    +0.000 A 
ATOM      5  C8  UNL     1     -16.837  74.889  60.517  0.00  0.00    +0.000 A 
ATOM      6  C9  UNL     1     -15.869  75.803  60.093  0.00  0.00    +0.000 A 
ATOM      7  C10 UNL     1     -17.949  73.520  62.318  0.00  0.00    +0.000 C 
ENDROOT
BRANCH   1   9
ATOM      8  C1  UNL     1     -13.852  77.449  59.031  0.00  0.00    +0.000 C 
ATOM      9  C2  UNL     1     -13.896  77.342  60.559  0.00  0.00    +0.000 C 
ATOM     10  C3  UNL     1     -14.120  78.716  61.203  0.00  0.00    +0.000 C 
ENDBRANCH   1   9
BRANCH   3  11
ATOM     11  O1  UNL     1     -16.053  74.667  64.129  0.00  0.00    +0.000 OA
ATOM     12  H14 UNL     1     -16.103  75.356  64.872  0.00  0.00    +0.000 HD
ENDBRANCH   3  11
TORSDOF 2
ENDMDL
