MODEL 1
REMARK VINA RESULT:      -4.6      0.000      0.000
REMARK  Name = .\Carvacrol.pdb
REMARK  5 active torsions:
REMARK  status: ('A' for Active; 'I' for Inactive)
REMARK    1  A    between atoms: C1_1  and  C2_2
REMARK    2  A    between atoms: C2_2  and  C3_3
REMARK    3  A    between atoms: C2_2  and  C4_4
REMARK    4  A    between atoms: C6_6  and  O1_11
REMARK    5  A    between atoms: C7_7  and  C10_10
REMARK                            x       y       z     vdW  Elec       q    Type
REMARK                         _______ _______ _______ _____ _____    ______ ____
ROOT
ATOM      1  C4  UNL     1       8.270  49.844  20.528  0.00  0.00    +0.000 A 
ATOM      2  C5  UNL     1       8.339  50.486  19.280  0.00  0.00    +0.000 A 
ATOM      3  C6  UNL     1       7.765  49.902  18.141  0.00  0.00    +0.000 A 
ATOM      4  C7  UNL     1       7.112  48.661  18.242  0.00  0.00    +0.000 A 
ATOM      5  C8  UNL     1       7.041  48.018  19.487  0.00  0.00    +0.000 A 
ATOM      6  C9  UNL     1       7.614  48.603  20.619  0.00  0.00    +0.000 A 
ATOM      7  C10 UNL     1       6.495  48.030  17.027  0.00  0.00    +0.000 C 
ENDROOT
BRANCH   1   9
ATOM      8  C1  UNL     1      10.332  49.993  21.962  0.00  0.00    +0.000 C 
ATOM      9  C2  UNL     1       8.897  50.490  21.749  0.00  0.00    +0.000 C 
ATOM     10  C3  UNL     1       8.850  52.019  21.652  0.00  0.00    +0.000 C 
ENDBRANCH   1   9
BRANCH   3  11
ATOM     11  O1  UNL     1       7.843  50.551  16.909  0.00  0.00    +0.000 OA
ATOM     12  H14 UNL     1       8.560  51.241  16.716  0.00  0.00    +0.000 HD
ENDBRANCH   3  11
TORSDOF 2
ENDMDL
MODEL 2
REMARK VINA RESULT:      -4.3      1.609      2.381
REMARK  Name = .\Carvacrol.pdb
REMARK  5 active torsions:
REMARK  status: ('A' for Active; 'I' for Inactive)
REMARK    1  A    between atoms: C1_1  and  C2_2
REMARK    2  A    between atoms: C2_2  and  C3_3
REMARK    3  A    between atoms: C2_2  and  C4_4
REMARK    4  A    between atoms: C6_6  and  O1_11
REMARK    5  A    between atoms: C7_7  and  C10_10
REMARK                            x       y       z     vdW  Elec       q    Type
REMARK                         _______ _______ _______ _____ _____    ______ ____
ROOT
ATOM      1  C4  UNL     1       8.789  50.321  19.186  0.00  0.00    +0.000 A 
ATOM      2  C5  UNL     1       7.485  49.959  18.808  0.00  0.00    +0.000 A 
ATOM      3  C6  UNL     1       7.254  49.255  17.617  0.00  0.00    +0.000 A 
ATOM      4  C7  UNL     1       8.333  48.905  16.787  0.00  0.00    +0.000 A 
ATOM      5  C8  UNL     1       9.637  49.265  17.163  0.00  0.00    +0.000 A 
ATOM      6  C9  UNL     1       9.863  49.966  18.350  0.00  0.00    +0.000 A 
ATOM      7  C10 UNL     1       8.094  48.151  15.510  0.00  0.00    +0.000 C 
ENDROOT
BRANCH   1   9
ATOM      8  C1  UNL     1       7.784  51.900  20.867  0.00  0.00    +0.000 C 
ATOM      9  C2  UNL     1       9.021  51.082  20.478  0.00  0.00    +0.000 C 
ATOM     10  C3  UNL     1       9.437  50.136  21.611  0.00  0.00    +0.000 C 
ENDBRANCH   1   9
BRANCH   3  11
ATOM     11  O1  UNL     1       5.953  48.903  17.255  0.00  0.00    +0.000 OA
ATOM     12  H14 UNL     1       5.418  49.454  16.593  0.00  0.00    +0.000 HD
ENDBRANCH   3  11
TORSDOF 2
ENDMDL
MODEL 3
REMARK VINA RESULT:      -4.3      2.078      4.694
REMARK  Name = .\Carvacrol.pdb
REMARK  5 active torsions:
REMARK  status: ('A' for Active; 'I' for Inactive)
REMARK    1  A    between atoms: C1_1  and  C2_2
REMARK    2  A    between atoms: C2_2  and  C3_3
REMARK    3  A    between atoms: C2_2  and  C4_4
REMARK    4  A    between atoms: C6_6  and  O1_11
REMARK    5  A    between atoms: C7_7  and  C10_10
REMARK                            x       y       z     vdW  Elec       q    Type
REMARK                         _______ _______ _______ _____ _____    ______ ____
ROOT
ATOM      1  C4  UNL     1       8.243  50.342  19.666  0.00  0.00    +0.000 A 
ATOM      2  C5  UNL     1       9.454  49.786  20.113  0.00  0.00    +0.000 A 
ATOM      3  C6  UNL     1      10.105  50.303  21.242  0.00  0.00    +0.000 A 
ATOM      4  C7  UNL     1       9.548  51.390  21.938  0.00  0.00    +0.000 A 
ATOM      5  C8  UNL     1       8.340  51.947  21.492  0.00  0.00    +0.000 A 
ATOM      6  C9  UNL     1       7.693  51.429  20.368  0.00  0.00    +0.000 A 
ATOM      7  C10 UNL     1      10.240  51.950  23.148  0.00  0.00    +0.000 C 
ENDROOT
BRANCH   1   9
ATOM      8  C1  UNL     1       8.431  49.910  17.194  0.00  0.00    +0.000 C 
ATOM      9  C2  UNL     1       7.552  49.769  18.442  0.00  0.00    +0.000 C 
ATOM     10  C3  UNL     1       7.145  48.308  18.670  0.00  0.00    +0.000 C 
ENDBRANCH   1   9
BRANCH   3  11
ATOM     11  O1  UNL     1      11.307  49.741  21.675  0.00  0.00    +0.000 OA
ATOM     12  H14 UNL     1      11.328  48.996  22.362  0.00  0.00    +0.000 HD
ENDBRANCH   3  11
TORSDOF 2
ENDMDL
MODEL 4
REMARK VINA RESULT:      -4.3      1.697      4.319
REMARK  Name = .\Carvacrol.pdb
REMARK  5 active torsions:
REMARK  status: ('A' for Active; 'I' for Inactive)
REMARK    1  A    between atoms: C1_1  and  C2_2
REMARK    2  A    between atoms: C2_2  and  C3_3
REMARK    3  A    between atoms: C2_2  and  C4_4
REMARK    4  A    between atoms: C6_6  and  O1_11
REMARK    5  A    between atoms: C7_7  and  C10_10
REMARK                            x       y       z     vdW  Elec       q    Type
REMARK                         _______ _______ _______ _____ _____    ______ ____
ROOT
ATOM      1  C4  UNL     1       8.257  49.402  19.795  0.00  0.00    +0.000 A 
ATOM      2  C5  UNL     1       7.636  50.654  19.945  0.00  0.00    +0.000 A 
ATOM      3  C6  UNL     1       8.135  51.596  20.857  0.00  0.00    +0.000 A 
ATOM      4  C7  UNL     1       9.266  51.291  21.633  0.00  0.00    +0.000 A 
ATOM      5  C8  UNL     1       9.888  50.041  21.485  0.00  0.00    +0.000 A 
ATOM      6  C9  UNL     1       9.389  49.106  20.575  0.00  0.00    +0.000 A 
ATOM      7  C10 UNL     1       9.806  52.294  22.612  0.00  0.00    +0.000 C 
ENDROOT
BRANCH   1   9
ATOM      8  C1  UNL     1       6.773  47.392  19.494  0.00  0.00    +0.000 C 
ATOM      9  C2  UNL     1       7.704  48.395  18.803  0.00  0.00    +0.000 C 
ATOM     10  C3  UNL     1       6.994  49.097  17.639  0.00  0.00    +0.000 C 
ENDBRANCH   1   9
BRANCH   3  11
ATOM     11  O1  UNL     1       7.507  52.834  20.995  0.00  0.00    +0.000 OA
ATOM     12  H14 UNL     1       6.652  53.055  20.498  0.00  0.00    +0.000 HD
ENDBRANCH   3  11
TORSDOF 2
ENDMDL
MODEL 5
REMARK VINA RESULT:      -4.2      1.975      3.066
REMARK  Name = .\Carvacrol.pdb
REMARK  5 active torsions:
REMARK  status: ('A' for Active; 'I' for Inactive)
REMARK    1  A    between atoms: C1_1  and  C2_2
REMARK    2  A    between atoms: C2_2  and  C3_3
REMARK    3  A    between atoms: C2_2  and  C4_4
REMARK    4  A    between atoms: C6_6  and  O1_11
REMARK    5  A    between atoms: C7_7  and  C10_10
REMARK                            x       y       z     vdW  Elec       q    Type
REMARK                         _______ _______ _______ _____ _____    ______ ____
ROOT
ATOM      1  C4  UNL     1       9.896  51.234  22.335  0.00  0.00    +0.000 A 
ATOM      2  C5  UNL     1       8.822  52.009  21.866  0.00  0.00    +0.000 A 
ATOM      3  C6  UNL     1       8.129  51.643  20.703  0.00  0.00    +0.000 A 
ATOM      4  C7  UNL     1       8.507  50.490  19.994  0.00  0.00    +0.000 A 
ATOM      5  C8  UNL     1       9.579  49.714  20.461  0.00  0.00    +0.000 A 
ATOM      6  C9  UNL     1      10.267  50.081  21.620  0.00  0.00    +0.000 A 
ATOM      7  C10 UNL     1       7.769  50.092  18.748  0.00  0.00    +0.000 C 
ENDROOT
BRANCH   1   9
ATOM      8  C1  UNL     1      11.953  50.873  23.739  0.00  0.00    +0.000 C 
ATOM      9  C2  UNL     1      10.635  51.644  23.596  0.00  0.00    +0.000 C 
ATOM     10  C3  UNL     1      10.875  53.158  23.628  0.00  0.00    +0.000 C 
ENDBRANCH   1   9
BRANCH   3  11
ATOM     11  O1  UNL     1       7.065  52.424  20.249  0.00  0.00    +0.000 OA
ATOM     12  H14 UNL     1       6.993  53.408  20.479  0.00  0.00    +0.000 HD
ENDBRANCH   3  11
TORSDOF 2
ENDMDL
MODEL 6
REMARK VINA RESULT:      -4.1      2.134      4.641
REMARK  Name = .\Carvacrol.pdb
REMARK  5 active torsions:
REMARK  status: ('A' for Active; 'I' for Inactive)
REMARK    1  A    between atoms: C1_1  and  C2_2
REMARK    2  A    between atoms: C2_2  and  C3_3
REMARK    3  A    between atoms: C2_2  and  C4_4
REMARK    4  A    between atoms: C6_6  and  O1_11
REMARK    5  A    between atoms: C7_7  and  C10_10
REMARK                            x       y       z     vdW  Elec       q    Type
REMARK                         _______ _______ _______ _____ _____    ______ ____
ROOT
ATOM      1  C4  UNL     1       7.834  49.053  19.386  0.00  0.00    +0.000 A 
ATOM      2  C5  UNL     1       8.090  48.583  20.685  0.00  0.00    +0.000 A 
ATOM      3  C6  UNL     1       8.608  49.440  21.667  0.00  0.00    +0.000 A 
ATOM      4  C7  UNL     1       8.877  50.784  21.356  0.00  0.00    +0.000 A 
ATOM      5  C8  UNL     1       8.623  51.256  20.058  0.00  0.00    +0.000 A 
ATOM      6  C9  UNL     1       8.106  50.399  19.083  0.00  0.00    +0.000 A 
ATOM      7  C10 UNL     1       9.433  51.708  22.402  0.00  0.00    +0.000 C 
ENDROOT
BRANCH   1   9
ATOM      8  C1  UNL     1       6.312  47.095  18.961  0.00  0.00    +0.000 C 
ATOM      9  C2  UNL     1       7.273  48.112  18.335  0.00  0.00    +0.000 C 
ATOM     10  C3  UNL     1       6.593  48.890  17.202  0.00  0.00    +0.000 C 
ENDBRANCH   1   9
BRANCH   3  11
ATOM     11  O1  UNL     1       8.857  48.959  22.953  0.00  0.00    +0.000 OA
ATOM     12  H14 UNL     1       8.185  48.381  23.444  0.00  0.00    +0.000 HD
ENDBRANCH   3  11
TORSDOF 2
ENDMDL
MODEL 7
REMARK VINA RESULT:      -4.1      1.568      1.648
REMARK  Name = .\Carvacrol.pdb
REMARK  5 active torsions:
REMARK  status: ('A' for Active; 'I' for Inactive)
REMARK    1  A    between atoms: C1_1  and  C2_2
REMARK    2  A    between atoms: C2_2  and  C3_3
REMARK    3  A    between atoms: C2_2  and  C4_4
REMARK    4  A    between atoms: C6_6  and  O1_11
REMARK    5  A    between atoms: C7_7  and  C10_10
REMARK                            x       y       z     vdW  Elec       q    Type
REMARK                         _______ _______ _______ _____ _____    ______ ____
ROOT
ATOM      1  C4  UNL     1       8.675  50.210  20.242  0.00  0.00    +0.000 A 
ATOM      2  C5  UNL     1       8.111  50.620  19.022  0.00  0.00    +0.000 A 
ATOM      3  C6  UNL     1       8.327  49.883  17.849  0.00  0.00    +0.000 A 
ATOM      4  C7  UNL     1       9.115  48.719  17.886  0.00  0.00    +0.000 A 
ATOM      5  C8  UNL     1       9.680  48.307  19.103  0.00  0.00    +0.000 A 
ATOM      6  C9  UNL     1       9.462  49.044  20.269  0.00  0.00    +0.000 A 
ATOM      7  C10 UNL     1       9.351  47.925  16.633  0.00  0.00    +0.000 C 
ENDROOT
BRANCH   1   9
ATOM      8  C1  UNL     1       9.750  51.537  22.089  0.00  0.00    +0.000 C 
ATOM      9  C2  UNL     1       8.432  51.019  21.502  0.00  0.00    +0.000 C 
ATOM     10  C3  UNL     1       7.454  52.171  21.239  0.00  0.00    +0.000 C 
ENDBRANCH   1   9
BRANCH   3  11
ATOM     11  O1  UNL     1       7.761  50.304  16.645  0.00  0.00    +0.000 OA
ATOM     12  H14 UNL     1       8.149  50.028  15.750  0.00  0.00    +0.000 HD
ENDBRANCH   3  11
TORSDOF 2
ENDMDL
MODEL 8
REMARK VINA RESULT:      -4.0      2.699      5.314
REMARK  Name = .\Carvacrol.pdb
REMARK  5 active torsions:
REMARK  status: ('A' for Active; 'I' for Inactive)
REMARK    1  A    between atoms: C1_1  and  C2_2
REMARK    2  A    between atoms: C2_2  and  C3_3
REMARK    3  A    between atoms: C2_2  and  C4_4
REMARK    4  A    between atoms: C6_6  and  O1_11
REMARK    5  A    between atoms: C7_7  and  C10_10
REMARK                            x       y       z     vdW  Elec       q    Type
REMARK                         _______ _______ _______ _____ _____    ______ ____
ROOT
ATOM      1  C4  UNL     1       9.153  50.568  21.296  0.00  0.00    +0.000 A 
ATOM      2  C5  UNL     1       9.208  51.833  21.906  0.00  0.00    +0.000 A 
ATOM      3  C6  UNL     1      10.009  52.049  23.037  0.00  0.00    +0.000 A 
ATOM      4  C7  UNL     1      10.768  50.993  23.572  0.00  0.00    +0.000 A 
ATOM      5  C8  UNL     1      10.714  49.729  22.965  0.00  0.00    +0.000 A 
ATOM      6  C9  UNL     1       9.916  49.518  21.838  0.00  0.00    +0.000 A 
ATOM      7  C10 UNL     1      11.628  51.216  24.783  0.00  0.00    +0.000 C 
ENDROOT
BRANCH   1   9
ATOM      8  C1  UNL     1       9.106  50.445  18.784  0.00  0.00    +0.000 C 
ATOM      9  C2  UNL     1       8.282  50.352  20.073  0.00  0.00    +0.000 C 
ATOM     10  C3  UNL     1       7.533  49.016  20.156  0.00  0.00    +0.000 C 
ENDBRANCH   1   9
BRANCH   3  11
ATOM     11  O1  UNL     1      10.053  53.310  23.632  0.00  0.00    +0.000 OA
ATOM     12  H14 UNL     1      10.921  53.707  23.971  0.00  0.00    +0.000 HD
ENDBRANCH   3  11
TORSDOF 2
ENDMDL
MODEL 9
REMARK VINA RESULT:      -3.9      1.613      2.417
REMARK  Name = .\Carvacrol.pdb
REMARK  5 active torsions:
REMARK  status: ('A' for Active; 'I' for Inactive)
REMARK    1  A    between atoms: C1_1  and  C2_2
REMARK    2  A    between atoms: C2_2  and  C3_3
REMARK    3  A    between atoms: C2_2  and  C4_4
REMARK    4  A    between atoms: C6_6  and  O1_11
REMARK    5  A    between atoms: C7_7  and  C10_10
REMARK                            x       y       z     vdW  Elec       q    Type
REMARK                         _______ _______ _______ _____ _____    ______ ____
ROOT
ATOM      1  C4  UNL     1       8.769  50.029  20.375  0.00  0.00    +0.000 A 
ATOM      2  C5  UNL     1       8.041  48.909  20.810  0.00  0.00    +0.000 A 
ATOM      3  C6  UNL     1       7.205  48.210  19.927  0.00  0.00    +0.000 A 
ATOM      4  C7  UNL     1       7.089  48.629  18.590  0.00  0.00    +0.000 A 
ATOM      5  C8  UNL     1       7.816  49.748  18.153  0.00  0.00    +0.000 A 
ATOM      6  C9  UNL     1       8.648  50.441  19.036  0.00  0.00    +0.000 A 
ATOM      7  C10 UNL     1       6.196  47.886  17.638  0.00  0.00    +0.000 C 
ENDROOT
BRANCH   1   9
ATOM      8  C1  UNL     1       8.909  51.905  22.046  0.00  0.00    +0.000 C 
ATOM      9  C2  UNL     1       9.669  50.773  21.344  0.00  0.00    +0.000 C 
ATOM     10  C3  UNL     1      10.298  49.815  22.363  0.00  0.00    +0.000 C 
ENDBRANCH   1   9
BRANCH   3  11
ATOM     11  O1  UNL     1       6.488  47.100  20.374  0.00  0.00    +0.000 OA
ATOM     12  H14 UNL     1       6.460  46.846  21.355  0.00  0.00    +0.000 HD
ENDBRANCH   3  11
TORSDOF 2
ENDMDL
