MODEL 1
REMARK VINA RESULT:      -5.5      0.000      0.000
REMARK  Name = .\Carvacrol.pdb
REMARK  5 active torsions:
REMARK  status: ('A' for Active; 'I' for Inactive)
REMARK    1  A    between atoms: C1_1  and  C2_2
REMARK    2  A    between atoms: C2_2  and  C3_3
REMARK    3  A    between atoms: C2_2  and  C4_4
REMARK    4  A    between atoms: C6_6  and  O1_11
REMARK    5  A    between atoms: C7_7  and  C10_10
REMARK                            x       y       z     vdW  Elec       q    Type
REMARK                         _______ _______ _______ _____ _____    ______ ____
ROOT
ATOM      1  C4  UNL     1     -13.466  76.243 104.386  0.00  0.00    +0.000 A 
ATOM      2  C5  UNL     1     -12.976  76.303 103.070  0.00  0.00    +0.000 A 
ATOM      3  C6  UNL     1     -13.441  75.412 102.092  0.00  0.00    +0.000 A 
ATOM      4  C7  UNL     1     -14.407  74.446 102.423  0.00  0.00    +0.000 A 
ATOM      5  C8  UNL     1     -14.897  74.384 103.737  0.00  0.00    +0.000 A 
ATOM      6  C9  UNL     1     -14.432  75.273 104.708  0.00  0.00    +0.000 A 
ATOM      7  C10 UNL     1     -14.909  73.488 101.380  0.00  0.00    +0.000 C 
ENDROOT
BRANCH   1   9
ATOM      8  C1  UNL     1     -11.606  77.816 105.014  0.00  0.00    +0.000 C 
ATOM      9  C2  UNL     1     -12.953  77.214 105.432  0.00  0.00    +0.000 C 
ATOM     10  C3  UNL     1     -13.983  78.312 105.721  0.00  0.00    +0.000 C 
ENDBRANCH   1   9
BRANCH   3  11
ATOM     11  O1  UNL     1     -12.944  75.484 100.790  0.00  0.00    +0.000 OA
ATOM     12  H14 UNL     1     -12.945  76.353 100.268  0.00  0.00    +0.000 HD
ENDBRANCH   3  11
TORSDOF 2
ENDMDL
MODEL 2
REMARK VINA RESULT:      -5.0      1.576      2.149
REMARK  Name = .\Carvacrol.pdb
REMARK  5 active torsions:
REMARK  status: ('A' for Active; 'I' for Inactive)
REMARK    1  A    between atoms: C1_1  and  C2_2
REMARK    2  A    between atoms: C2_2  and  C3_3
REMARK    3  A    between atoms: C2_2  and  C4_4
REMARK    4  A    between atoms: C6_6  and  O1_11
REMARK    5  A    between atoms: C7_7  and  C10_10
REMARK                            x       y       z     vdW  Elec       q    Type
REMARK                         _______ _______ _______ _____ _____    ______ ____
ROOT
ATOM      1  C4  UNL     1     -13.622  75.755 103.998  0.00  0.00    +0.000 A 
ATOM      2  C5  UNL     1     -14.588  74.768 104.258  0.00  0.00    +0.000 A 
ATOM      3  C6  UNL     1     -15.063  73.941 103.229  0.00  0.00    +0.000 A 
ATOM      4  C7  UNL     1     -14.571  74.096 101.922  0.00  0.00    +0.000 A 
ATOM      5  C8  UNL     1     -13.606  75.080 101.659  0.00  0.00    +0.000 A 
ATOM      6  C9  UNL     1     -13.135  75.901 102.687  0.00  0.00    +0.000 A 
ATOM      7  C10 UNL     1     -15.074  73.214 100.815  0.00  0.00    +0.000 C 
ENDROOT
BRANCH   1   9
ATOM      8  C1  UNL     1     -11.721  77.187 104.814  0.00  0.00    +0.000 C 
ATOM      9  C2  UNL     1     -13.120  76.641 105.123  0.00  0.00    +0.000 C 
ATOM     10  C3  UNL     1     -14.105  77.779 105.413  0.00  0.00    +0.000 C 
ENDBRANCH   1   9
BRANCH   3  11
ATOM     11  O1  UNL     1     -16.023  72.967 103.503  0.00  0.00    +0.000 OA
ATOM     12  H14 UNL     1     -16.636  73.036 104.307  0.00  0.00    +0.000 HD
ENDBRANCH   3  11
TORSDOF 2
ENDMDL
MODEL 3
REMARK VINA RESULT:      -4.9      1.392      3.802
REMARK  Name = .\Carvacrol.pdb
REMARK  5 active torsions:
REMARK  status: ('A' for Active; 'I' for Inactive)
REMARK    1  A    between atoms: C1_1  and  C2_2
REMARK    2  A    between atoms: C2_2  and  C3_3
REMARK    3  A    between atoms: C2_2  and  C4_4
REMARK    4  A    between atoms: C6_6  and  O1_11
REMARK    5  A    between atoms: C7_7  and  C10_10
REMARK                            x       y       z     vdW  Elec       q    Type
REMARK                         _______ _______ _______ _____ _____    ______ ____
ROOT
ATOM      1  C4  UNL     1     -14.962  74.303 104.066  0.00  0.00    +0.000 A 
ATOM      2  C5  UNL     1     -14.450  74.505 102.772  0.00  0.00    +0.000 A 
ATOM      3  C6  UNL     1     -13.464  75.473 102.536  0.00  0.00    +0.000 A 
ATOM      4  C7  UNL     1     -12.977  76.254 103.598  0.00  0.00    +0.000 A 
ATOM      5  C8  UNL     1     -13.486  76.054 104.891  0.00  0.00    +0.000 A 
ATOM      6  C9  UNL     1     -14.469  75.088 105.123  0.00  0.00    +0.000 A 
ATOM      7  C10 UNL     1     -11.921  77.293 103.352  0.00  0.00    +0.000 C 
ENDROOT
BRANCH   1   9
ATOM      8  C1  UNL     1     -15.858  72.592 105.678  0.00  0.00    +0.000 C 
ATOM      9  C2  UNL     1     -16.029  73.251 104.304  0.00  0.00    +0.000 C 
ATOM     10  C3  UNL     1     -17.435  73.843 104.146  0.00  0.00    +0.000 C 
ENDBRANCH   1   9
BRANCH   3  11
ATOM     11  O1  UNL     1     -12.966  75.663 101.246  0.00  0.00    +0.000 OA
ATOM     12  H14 UNL     1     -12.062  76.091 101.083  0.00  0.00    +0.000 HD
ENDBRANCH   3  11
TORSDOF 2
ENDMDL
MODEL 4
REMARK VINA RESULT:      -4.9      1.988      4.630
REMARK  Name = .\Carvacrol.pdb
REMARK  5 active torsions:
REMARK  status: ('A' for Active; 'I' for Inactive)
REMARK    1  A    between atoms: C1_1  and  C2_2
REMARK    2  A    between atoms: C2_2  and  C3_3
REMARK    3  A    between atoms: C2_2  and  C4_4
REMARK    4  A    between atoms: C6_6  and  O1_11
REMARK    5  A    between atoms: C7_7  and  C10_10
REMARK                            x       y       z     vdW  Elec       q    Type
REMARK                         _______ _______ _______ _____ _____    ______ ____
ROOT
ATOM      1  C4  UNL     1     -13.760  76.677 104.889  0.00  0.00    +0.000 A 
ATOM      2  C5  UNL     1     -12.376  76.546 104.680  0.00  0.00    +0.000 A 
ATOM      3  C6  UNL     1     -11.493  77.561 105.076  0.00  0.00    +0.000 A 
ATOM      4  C7  UNL     1     -11.989  78.724 105.689  0.00  0.00    +0.000 A 
ATOM      5  C8  UNL     1     -13.371  78.858 105.899  0.00  0.00    +0.000 A 
ATOM      6  C9  UNL     1     -14.247  77.845 105.503  0.00  0.00    +0.000 A 
ATOM      7  C10 UNL     1     -11.049  79.815 106.117  0.00  0.00    +0.000 C 
ENDROOT
BRANCH   1   9
ATOM      8  C1  UNL     1     -14.155  74.831 103.226  0.00  0.00    +0.000 C 
ATOM      9  C2  UNL     1     -14.701  75.570 104.453  0.00  0.00    +0.000 C 
ATOM     10  C3  UNL     1     -14.982  74.597 105.605  0.00  0.00    +0.000 C 
ENDBRANCH   1   9
BRANCH   3  11
ATOM     11  O1  UNL     1     -10.122  77.416 104.862  0.00  0.00    +0.000 OA
ATOM     12  H14 UNL     1      -9.696  76.505 104.741  0.00  0.00    +0.000 HD
ENDBRANCH   3  11
TORSDOF 2
ENDMDL
MODEL 5
REMARK VINA RESULT:      -4.9      2.212      4.720
REMARK  Name = .\Carvacrol.pdb
REMARK  5 active torsions:
REMARK  status: ('A' for Active; 'I' for Inactive)
REMARK    1  A    between atoms: C1_1  and  C2_2
REMARK    2  A    between atoms: C2_2  and  C3_3
REMARK    3  A    between atoms: C2_2  and  C4_4
REMARK    4  A    between atoms: C6_6  and  O1_11
REMARK    5  A    between atoms: C7_7  and  C10_10
REMARK                            x       y       z     vdW  Elec       q    Type
REMARK                         _______ _______ _______ _____ _____    ______ ____
ROOT
ATOM      1  C4  UNL     1     -13.586  76.118 103.729  0.00  0.00    +0.000 A 
ATOM      2  C5  UNL     1     -14.219  76.813 104.774  0.00  0.00    +0.000 A 
ATOM      3  C6  UNL     1     -13.544  77.825 105.473  0.00  0.00    +0.000 A 
ATOM      4  C7  UNL     1     -12.220  78.151 105.132  0.00  0.00    +0.000 A 
ATOM      5  C8  UNL     1     -11.586  77.458 104.089  0.00  0.00    +0.000 A 
ATOM      6  C9  UNL     1     -12.262  76.452 103.394  0.00  0.00    +0.000 A 
ATOM      7  C10 UNL     1     -11.491  79.233 105.877  0.00  0.00    +0.000 C 
ENDROOT
BRANCH   1   9
ATOM      8  C1  UNL     1     -13.434  74.369 101.927  0.00  0.00    +0.000 C 
ATOM      9  C2  UNL     1     -14.331  75.027 102.983  0.00  0.00    +0.000 C 
ATOM     10  C3  UNL     1     -14.901  73.984 103.951  0.00  0.00    +0.000 C 
ENDBRANCH   1   9
BRANCH   3  11
ATOM     11  O1  UNL     1     -14.185  78.505 106.509  0.00  0.00    +0.000 OA
ATOM     12  H14 UNL     1     -14.971  79.121 106.333  0.00  0.00    +0.000 HD
ENDBRANCH   3  11
TORSDOF 2
ENDMDL
MODEL 6
REMARK VINA RESULT:      -4.8      1.626      2.342
REMARK  Name = .\Carvacrol.pdb
REMARK  5 active torsions:
REMARK  status: ('A' for Active; 'I' for Inactive)
REMARK    1  A    between atoms: C1_1  and  C2_2
REMARK    2  A    between atoms: C2_2  and  C3_3
REMARK    3  A    between atoms: C2_2  and  C4_4
REMARK    4  A    between atoms: C6_6  and  O1_11
REMARK    5  A    between atoms: C7_7  and  C10_10
REMARK                            x       y       z     vdW  Elec       q    Type
REMARK                         _______ _______ _______ _____ _____    ______ ____
ROOT
ATOM      1  C4  UNL     1     -13.299  75.920 103.797  0.00  0.00    +0.000 A 
ATOM      2  C5  UNL     1     -13.759  75.049 102.795  0.00  0.00    +0.000 A 
ATOM      3  C6  UNL     1     -14.743  74.090 103.077  0.00  0.00    +0.000 A 
ATOM      4  C7  UNL     1     -15.279  73.993 104.373  0.00  0.00    +0.000 A 
ATOM      5  C8  UNL     1     -14.821  74.862 105.375  0.00  0.00    +0.000 A 
ATOM      6  C9  UNL     1     -13.841  75.816 105.091  0.00  0.00    +0.000 A 
ATOM      7  C10 UNL     1     -16.333  72.968 104.681  0.00  0.00    +0.000 C 
ENDROOT
BRANCH   1   9
ATOM      8  C1  UNL     1     -12.864  78.266 103.000  0.00  0.00    +0.000 C 
ATOM      9  C2  UNL     1     -12.234  76.952 103.476  0.00  0.00    +0.000 C 
ATOM     10  C3  UNL     1     -11.309  77.186 104.677  0.00  0.00    +0.000 C 
ENDBRANCH   1   9
BRANCH   3  11
ATOM     11  O1  UNL     1     -15.190  73.232 102.072  0.00  0.00    +0.000 OA
ATOM     12  H14 UNL     1     -15.952  73.487 101.455  0.00  0.00    +0.000 HD
ENDBRANCH   3  11
TORSDOF 2
ENDMDL
MODEL 7
REMARK VINA RESULT:      -4.8      1.464      4.225
REMARK  Name = .\Carvacrol.pdb
REMARK  5 active torsions:
REMARK  status: ('A' for Active; 'I' for Inactive)
REMARK    1  A    between atoms: C1_1  and  C2_2
REMARK    2  A    between atoms: C2_2  and  C3_3
REMARK    3  A    between atoms: C2_2  and  C4_4
REMARK    4  A    between atoms: C6_6  and  O1_11
REMARK    5  A    between atoms: C7_7  and  C10_10
REMARK                            x       y       z     vdW  Elec       q    Type
REMARK                         _______ _______ _______ _____ _____    ______ ____
ROOT
ATOM      1  C4  UNL     1     -14.142  75.413 103.608  0.00  0.00    +0.000 A 
ATOM      2  C5  UNL     1     -12.929  75.888 103.082  0.00  0.00    +0.000 A 
ATOM      3  C6  UNL     1     -12.249  76.951 103.695  0.00  0.00    +0.000 A 
ATOM      4  C7  UNL     1     -12.782  77.552 104.849  0.00  0.00    +0.000 A 
ATOM      5  C8  UNL     1     -13.994  77.079 105.376  0.00  0.00    +0.000 A 
ATOM      6  C9  UNL     1     -14.667  76.020 104.762  0.00  0.00    +0.000 A 
ATOM      7  C10 UNL     1     -12.061  78.691 105.511  0.00  0.00    +0.000 C 
ENDROOT
BRANCH   1   9
ATOM      8  C1  UNL     1     -16.351  74.581 102.736  0.00  0.00    +0.000 C 
ATOM      9  C2  UNL     1     -14.864  74.262 102.931  0.00  0.00    +0.000 C 
ATOM     10  C3  UNL     1     -14.197  73.898 101.599  0.00  0.00    +0.000 C 
ENDBRANCH   1   9
BRANCH   3  11
ATOM     11  O1  UNL     1     -11.046  77.413 103.160  0.00  0.00    +0.000 OA
ATOM     12  H14 UNL     1     -11.015  78.205 102.529  0.00  0.00    +0.000 HD
ENDBRANCH   3  11
TORSDOF 2
ENDMDL
MODEL 8
REMARK VINA RESULT:      -4.7      3.148      5.831
REMARK  Name = .\Carvacrol.pdb
REMARK  5 active torsions:
REMARK  status: ('A' for Active; 'I' for Inactive)
REMARK    1  A    between atoms: C1_1  and  C2_2
REMARK    2  A    between atoms: C2_2  and  C3_3
REMARK    3  A    between atoms: C2_2  and  C4_4
REMARK    4  A    between atoms: C6_6  and  O1_11
REMARK    5  A    between atoms: C7_7  and  C10_10
REMARK                            x       y       z     vdW  Elec       q    Type
REMARK                         _______ _______ _______ _____ _____    ______ ____
ROOT
ATOM      1  C4  UNL     1     -13.209  77.925 105.275  0.00  0.00    +0.000 A 
ATOM      2  C5  UNL     1     -13.977  78.758 106.107  0.00  0.00    +0.000 A 
ATOM      3  C6  UNL     1     -13.379  79.813 106.812  0.00  0.00    +0.000 A 
ATOM      4  C7  UNL     1     -11.998  80.045 106.691  0.00  0.00    +0.000 A 
ATOM      5  C8  UNL     1     -11.229  79.215 105.860  0.00  0.00    +0.000 A 
ATOM      6  C9  UNL     1     -11.828  78.165 105.159  0.00  0.00    +0.000 A 
ATOM      7  C10 UNL     1     -11.350  81.172 107.443  0.00  0.00    +0.000 C 
ENDROOT
BRANCH   1   9
ATOM      8  C1  UNL     1     -13.154  76.514 103.193  0.00  0.00    +0.000 C 
ATOM      9  C2  UNL     1     -13.872  76.789 104.519  0.00  0.00    +0.000 C 
ATOM     10  C3  UNL     1     -13.947  75.522 105.379  0.00  0.00    +0.000 C 
ENDBRANCH   1   9
BRANCH   3  11
ATOM     11  O1  UNL     1     -14.154  80.630 107.635  0.00  0.00    +0.000 OA
ATOM     12  H14 UNL     1     -14.903  81.202 107.262  0.00  0.00    +0.000 HD
ENDBRANCH   3  11
TORSDOF 2
ENDMDL
MODEL 9
REMARK VINA RESULT:      -4.5      2.334      3.151
REMARK  Name = .\Carvacrol.pdb
REMARK  5 active torsions:
REMARK  status: ('A' for Active; 'I' for Inactive)
REMARK    1  A    between atoms: C1_1  and  C2_2
REMARK    2  A    between atoms: C2_2  and  C3_3
REMARK    3  A    between atoms: C2_2  and  C4_4
REMARK    4  A    between atoms: C6_6  and  O1_11
REMARK    5  A    between atoms: C7_7  and  C10_10
REMARK                            x       y       z     vdW  Elec       q    Type
REMARK                         _______ _______ _______ _____ _____    ______ ____
ROOT
ATOM      1  C4  UNL     1     -13.688  75.649 103.838  0.00  0.00    +0.000 A 
ATOM      2  C5  UNL     1     -14.163  75.475 105.149  0.00  0.00    +0.000 A 
ATOM      3  C6  UNL     1     -15.137  74.507 105.436  0.00  0.00    +0.000 A 
ATOM      4  C7  UNL     1     -15.648  73.699 104.405  0.00  0.00    +0.000 A 
ATOM      5  C8  UNL     1     -15.175  73.871 103.095  0.00  0.00    +0.000 A 
ATOM      6  C9  UNL     1     -14.205  74.836 102.814  0.00  0.00    +0.000 A 
ATOM      7  C10 UNL     1     -16.692  72.661 104.704  0.00  0.00    +0.000 C 
ENDROOT
BRANCH   1   9
ATOM      8  C1  UNL     1     -13.248  77.921 102.851  0.00  0.00    +0.000 C 
ATOM      9  C2  UNL     1     -12.634  76.700 103.546  0.00  0.00    +0.000 C 
ATOM     10  C3  UNL     1     -11.890  77.108 104.824  0.00  0.00    +0.000 C 
ENDBRANCH   1   9
BRANCH   3  11
ATOM     11  O1  UNL     1     -15.599  74.347 106.742  0.00  0.00    +0.000 OA
ATOM     12  H14 UNL     1     -15.442  75.053 107.452  0.00  0.00    +0.000 HD
ENDBRANCH   3  11
TORSDOF 2
ENDMDL
