MODEL 1
REMARK VINA RESULT:      -4.4      0.000      0.000
REMARK  Name = .\Carvacrol.pdb
REMARK  5 active torsions:
REMARK  status: ('A' for Active; 'I' for Inactive)
REMARK    1  A    between atoms: C1_1  and  C2_2
REMARK    2  A    between atoms: C2_2  and  C3_3
REMARK    3  A    between atoms: C2_2  and  C4_4
REMARK    4  A    between atoms: C6_6  and  O1_11
REMARK    5  A    between atoms: C7_7  and  C10_10
REMARK                            x       y       z     vdW  Elec       q    Type
REMARK                         _______ _______ _______ _____ _____    ______ ____
ROOT
ATOM      1  C4  UNL     1       2.124  71.247 131.914  0.00  0.00    +0.000 A 
ATOM      2  C5  UNL     1       2.991  72.352 131.896  0.00  0.00    +0.000 A 
ATOM      3  C6  UNL     1       4.337  72.201 131.530  0.00  0.00    +0.000 A 
ATOM      4  C7  UNL     1       4.830  70.932 131.178  0.00  0.00    +0.000 A 
ATOM      5  C8  UNL     1       3.966  69.827 131.195  0.00  0.00    +0.000 A 
ATOM      6  C9  UNL     1       2.626  69.982 131.559  0.00  0.00    +0.000 A 
ATOM      7  C10 UNL     1       6.270  70.763 130.785  0.00  0.00    +0.000 C 
ENDROOT
BRANCH   1   9
ATOM      8  C1  UNL     1      -0.018  70.075 132.521  0.00  0.00    +0.000 C 
ATOM      9  C2  UNL     1       0.671  71.428 132.312  0.00  0.00    +0.000 C 
ATOM     10  C3  UNL     1       0.545  72.311 133.559  0.00  0.00    +0.000 C 
ENDBRANCH   1   9
BRANCH   3  11
ATOM     11  O1  UNL     1       5.186  73.307 131.518  0.00  0.00    +0.000 OA
ATOM     12  H14 UNL     1       6.083  73.294 131.991  0.00  0.00    +0.000 HD
ENDBRANCH   3  11
TORSDOF 2
ENDMDL
MODEL 2
REMARK VINA RESULT:      -4.3      1.085      4.378
REMARK  Name = .\Carvacrol.pdb
REMARK  5 active torsions:
REMARK  status: ('A' for Active; 'I' for Inactive)
REMARK    1  A    between atoms: C1_1  and  C2_2
REMARK    2  A    between atoms: C2_2  and  C3_3
REMARK    3  A    between atoms: C2_2  and  C4_4
REMARK    4  A    between atoms: C6_6  and  O1_11
REMARK    5  A    between atoms: C7_7  and  C10_10
REMARK                            x       y       z     vdW  Elec       q    Type
REMARK                         _______ _______ _______ _____ _____    ______ ____
ROOT
ATOM      1  C4  UNL     1       5.227  70.707 131.081  0.00  0.00    +0.000 A 
ATOM      2  C5  UNL     1       4.905  71.988 131.563  0.00  0.00    +0.000 A 
ATOM      3  C6  UNL     1       3.597  72.295 131.963  0.00  0.00    +0.000 A 
ATOM      4  C7  UNL     1       2.590  71.316 131.884  0.00  0.00    +0.000 A 
ATOM      5  C8  UNL     1       2.909  70.037 131.403  0.00  0.00    +0.000 A 
ATOM      6  C9  UNL     1       4.214  69.735 131.006  0.00  0.00    +0.000 A 
ATOM      7  C10 UNL     1       1.187  71.638 132.311  0.00  0.00    +0.000 C 
ENDROOT
BRANCH   1   9
ATOM      8  C1  UNL     1       6.744  68.985 130.052  0.00  0.00    +0.000 C 
ATOM      9  C2  UNL     1       6.648  70.392 130.652  0.00  0.00    +0.000 C 
ATOM     10  C3  UNL     1       7.177  71.448 129.674  0.00  0.00    +0.000 C 
ENDBRANCH   1   9
BRANCH   3  11
ATOM     11  O1  UNL     1       3.293  73.571 132.439  0.00  0.00    +0.000 OA
ATOM     12  H14 UNL     1       2.335  73.891 132.527  0.00  0.00    +0.000 HD
ENDBRANCH   3  11
TORSDOF 2
ENDMDL
MODEL 3
REMARK VINA RESULT:      -4.1      1.864      4.814
REMARK  Name = .\Carvacrol.pdb
REMARK  5 active torsions:
REMARK  status: ('A' for Active; 'I' for Inactive)
REMARK    1  A    between atoms: C1_1  and  C2_2
REMARK    2  A    between atoms: C2_2  and  C3_3
REMARK    3  A    between atoms: C2_2  and  C4_4
REMARK    4  A    between atoms: C6_6  and  O1_11
REMARK    5  A    between atoms: C7_7  and  C10_10
REMARK                            x       y       z     vdW  Elec       q    Type
REMARK                         _______ _______ _______ _____ _____    ______ ____
ROOT
ATOM      1  C4  UNL     1       4.972  70.741 131.048  0.00  0.00    +0.000 A 
ATOM      2  C5  UNL     1       3.838  69.916 130.954  0.00  0.00    +0.000 A 
ATOM      3  C6  UNL     1       2.577  70.386 131.348  0.00  0.00    +0.000 A 
ATOM      4  C7  UNL     1       2.438  71.694 131.844  0.00  0.00    +0.000 A 
ATOM      5  C8  UNL     1       3.569  72.519 131.939  0.00  0.00    +0.000 A 
ATOM      6  C9  UNL     1       4.823  72.048 131.544  0.00  0.00    +0.000 A 
ATOM      7  C10 UNL     1       1.090  72.203 132.268  0.00  0.00    +0.000 C 
ENDROOT
BRANCH   1   9
ATOM      8  C1  UNL     1       7.081  71.256 129.776  0.00  0.00    +0.000 C 
ATOM      9  C2  UNL     1       6.330  70.217 130.617  0.00  0.00    +0.000 C 
ATOM     10  C3  UNL     1       7.163  69.778 131.827  0.00  0.00    +0.000 C 
ENDBRANCH   1   9
BRANCH   3  11
ATOM     11  O1  UNL     1       1.460  69.555 131.250  0.00  0.00    +0.000 OA
ATOM     12  H14 UNL     1       1.434  68.646 131.698  0.00  0.00    +0.000 HD
ENDBRANCH   3  11
TORSDOF 2
ENDMDL
MODEL 4
REMARK VINA RESULT:      -4.1      1.599      4.156
REMARK  Name = .\Carvacrol.pdb
REMARK  5 active torsions:
REMARK  status: ('A' for Active; 'I' for Inactive)
REMARK    1  A    between atoms: C1_1  and  C2_2
REMARK    2  A    between atoms: C2_2  and  C3_3
REMARK    3  A    between atoms: C2_2  and  C4_4
REMARK    4  A    between atoms: C6_6  and  O1_11
REMARK    5  A    between atoms: C7_7  and  C10_10
REMARK                            x       y       z     vdW  Elec       q    Type
REMARK                         _______ _______ _______ _____ _____    ______ ____
ROOT
ATOM      1  C4  UNL     1       3.844  71.016 132.018  0.00  0.00    +0.000 A 
ATOM      2  C5  UNL     1       3.264  72.290 131.894  0.00  0.00    +0.000 A 
ATOM      3  C6  UNL     1       1.917  72.499 132.224  0.00  0.00    +0.000 A 
ATOM      4  C7  UNL     1       1.132  71.427 132.684  0.00  0.00    +0.000 A 
ATOM      5  C8  UNL     1       1.709  70.154 132.808  0.00  0.00    +0.000 A 
ATOM      6  C9  UNL     1       3.052  69.950 132.479  0.00  0.00    +0.000 A 
ATOM      7  C10 UNL     1      -0.311  71.643 133.039  0.00  0.00    +0.000 C 
ENDROOT
BRANCH   1   9
ATOM      8  C1  UNL     1       5.470  69.625 130.695  0.00  0.00    +0.000 C 
ATOM      9  C2  UNL     1       5.303  70.808 131.656  0.00  0.00    +0.000 C 
ATOM     10  C3  UNL     1       5.916  72.086 131.071  0.00  0.00    +0.000 C 
ENDBRANCH   1   9
BRANCH   3  11
ATOM     11  O1  UNL     1       1.355  73.770 132.096  0.00  0.00    +0.000 OA
ATOM     12  H14 UNL     1       0.812  74.031 131.281  0.00  0.00    +0.000 HD
ENDBRANCH   3  11
TORSDOF 2
ENDMDL
MODEL 5
REMARK VINA RESULT:      -4.0      2.043      5.073
REMARK  Name = .\Carvacrol.pdb
REMARK  5 active torsions:
REMARK  status: ('A' for Active; 'I' for Inactive)
REMARK    1  A    between atoms: C1_1  and  C2_2
REMARK    2  A    between atoms: C2_2  and  C3_3
REMARK    3  A    between atoms: C2_2  and  C4_4
REMARK    4  A    between atoms: C6_6  and  O1_11
REMARK    5  A    between atoms: C7_7  and  C10_10
REMARK                            x       y       z     vdW  Elec       q    Type
REMARK                         _______ _______ _______ _____ _____    ______ ____
ROOT
ATOM      1  C4  UNL     1       5.951  70.538 130.814  0.00  0.00    +0.000 A 
ATOM      2  C5  UNL     1       4.770  69.777 130.812  0.00  0.00    +0.000 A 
ATOM      3  C6  UNL     1       3.545  70.356 131.177  0.00  0.00    +0.000 A 
ATOM      4  C7  UNL     1       3.491  71.710 131.550  0.00  0.00    +0.000 A 
ATOM      5  C8  UNL     1       4.670  72.472 131.552  0.00  0.00    +0.000 A 
ATOM      6  C9  UNL     1       5.888  71.892 131.188  0.00  0.00    +0.000 A 
ATOM      7  C10 UNL     1       2.184  72.336 131.942  0.00  0.00    +0.000 C 
ENDROOT
BRANCH   1   9
ATOM      8  C1  UNL     1       7.044  68.504 129.816  0.00  0.00    +0.000 C 
ATOM      9  C2  UNL     1       7.268  69.896 130.417  0.00  0.00    +0.000 C 
ATOM     10  C3  UNL     1       8.052  70.794 129.453  0.00  0.00    +0.000 C 
ENDBRANCH   1   9
BRANCH   3  11
ATOM     11  O1  UNL     1       2.380  69.588 131.171  0.00  0.00    +0.000 OA
ATOM     12  H14 UNL     1       2.129  69.010 130.377  0.00  0.00    +0.000 HD
ENDBRANCH   3  11
TORSDOF 2
ENDMDL
MODEL 6
REMARK VINA RESULT:      -3.9      2.200      3.837
REMARK  Name = .\Carvacrol.pdb
REMARK  5 active torsions:
REMARK  status: ('A' for Active; 'I' for Inactive)
REMARK    1  A    between atoms: C1_1  and  C2_2
REMARK    2  A    between atoms: C2_2  and  C3_3
REMARK    3  A    between atoms: C2_2  and  C4_4
REMARK    4  A    between atoms: C6_6  and  O1_11
REMARK    5  A    between atoms: C7_7  and  C10_10
REMARK                            x       y       z     vdW  Elec       q    Type
REMARK                         _______ _______ _______ _____ _____    ______ ____
ROOT
ATOM      1  C4  UNL     1       1.001  73.347 134.568  0.00  0.00    +0.000 A 
ATOM      2  C5  UNL     1       2.220  73.539 133.895  0.00  0.00    +0.000 A 
ATOM      3  C6  UNL     1       2.487  72.869 132.692  0.00  0.00    +0.000 A 
ATOM      4  C7  UNL     1       1.530  71.994 132.148  0.00  0.00    +0.000 A 
ATOM      5  C8  UNL     1       0.312  71.801 132.818  0.00  0.00    +0.000 A 
ATOM      6  C9  UNL     1       0.050  72.470 134.016  0.00  0.00    +0.000 A 
ATOM      7  C10 UNL     1       1.809  71.273 130.860  0.00  0.00    +0.000 C 
ENDROOT
BRANCH   1   9
ATOM      8  C1  UNL     1      -0.457  73.458 136.615  0.00  0.00    +0.000 C 
ATOM      9  C2  UNL     1       0.729  74.079 135.868  0.00  0.00    +0.000 C 
ATOM     10  C3  UNL     1       1.980  74.118 136.754  0.00  0.00    +0.000 C 
ENDBRANCH   1   9
BRANCH   3  11
ATOM     11  O1  UNL     1       3.701  73.069 132.035  0.00  0.00    +0.000 OA
ATOM     12  H14 UNL     1       4.139  72.334 131.492  0.00  0.00    +0.000 HD
ENDBRANCH   3  11
TORSDOF 2
ENDMDL
MODEL 7
REMARK VINA RESULT:      -3.9      2.328      4.779
REMARK  Name = .\Carvacrol.pdb
REMARK  5 active torsions:
REMARK  status: ('A' for Active; 'I' for Inactive)
REMARK    1  A    between atoms: C1_1  and  C2_2
REMARK    2  A    between atoms: C2_2  and  C3_3
REMARK    3  A    between atoms: C2_2  and  C4_4
REMARK    4  A    between atoms: C6_6  and  O1_11
REMARK    5  A    between atoms: C7_7  and  C10_10
REMARK                            x       y       z     vdW  Elec       q    Type
REMARK                         _______ _______ _______ _____ _____    ______ ____
ROOT
ATOM      1  C4  UNL     1       3.912  70.631 132.132  0.00  0.00    +0.000 A 
ATOM      2  C5  UNL     1       3.130  69.510 132.456  0.00  0.00    +0.000 A 
ATOM      3  C6  UNL     1       1.755  69.642 132.699  0.00  0.00    +0.000 A 
ATOM      4  C7  UNL     1       1.146  70.906 132.620  0.00  0.00    +0.000 A 
ATOM      5  C8  UNL     1       1.925  72.028 132.297  0.00  0.00    +0.000 A 
ATOM      6  C9  UNL     1       3.294  71.892 132.055  0.00  0.00    +0.000 A 
ATOM      7  C10 UNL     1      -0.326  71.055 132.879  0.00  0.00    +0.000 C 
ENDROOT
BRANCH   1   9
ATOM      8  C1  UNL     1       6.123  69.943 133.117  0.00  0.00    +0.000 C 
ATOM      9  C2  UNL     1       5.398  70.471 131.872  0.00  0.00    +0.000 C 
ATOM     10  C3  UNL     1       5.654  69.567 130.660  0.00  0.00    +0.000 C 
ENDBRANCH   1   9
BRANCH   3  11
ATOM     11  O1  UNL     1       0.991  68.519 133.021  0.00  0.00    +0.000 OA
ATOM     12  H14 UNL     1       1.313  67.832 133.693  0.00  0.00    +0.000 HD
ENDBRANCH   3  11
TORSDOF 2
ENDMDL
MODEL 8
REMARK VINA RESULT:      -3.8      2.361      5.046
REMARK  Name = .\Carvacrol.pdb
REMARK  5 active torsions:
REMARK  status: ('A' for Active; 'I' for Inactive)
REMARK    1  A    between atoms: C1_1  and  C2_2
REMARK    2  A    between atoms: C2_2  and  C3_3
REMARK    3  A    between atoms: C2_2  and  C4_4
REMARK    4  A    between atoms: C6_6  and  O1_11
REMARK    5  A    between atoms: C7_7  and  C10_10
REMARK                            x       y       z     vdW  Elec       q    Type
REMARK                         _______ _______ _______ _____ _____    ______ ____
ROOT
ATOM      1  C4  UNL     1       5.464  69.855 131.493  0.00  0.00    +0.000 A 
ATOM      2  C5  UNL     1       4.225  69.989 130.843  0.00  0.00    +0.000 A 
ATOM      3  C6  UNL     1       3.025  69.869 131.558  0.00  0.00    +0.000 A 
ATOM      4  C7  UNL     1       3.053  69.613 132.940  0.00  0.00    +0.000 A 
ATOM      5  C8  UNL     1       4.289  69.479 133.591  0.00  0.00    +0.000 A 
ATOM      6  C9  UNL     1       5.483  69.600 132.876  0.00  0.00    +0.000 A 
ATOM      7  C10 UNL     1       1.771  69.483 133.712  0.00  0.00    +0.000 C 
ENDROOT
BRANCH   1   9
ATOM      8  C1  UNL     1       7.935  70.312 131.626  0.00  0.00    +0.000 C 
ATOM      9  C2  UNL     1       6.754  69.988 130.704  0.00  0.00    +0.000 C 
ATOM     10  C3  UNL     1       7.028  68.726 129.877  0.00  0.00    +0.000 C 
ENDBRANCH   1   9
BRANCH   3  11
ATOM     11  O1  UNL     1       1.803  70.003 130.899  0.00  0.00    +0.000 OA
ATOM     12  H14 UNL     1       1.680  70.657 130.134  0.00  0.00    +0.000 HD
ENDBRANCH   3  11
TORSDOF 2
ENDMDL
MODEL 9
REMARK VINA RESULT:      -3.8      3.549      4.581
REMARK  Name = .\Carvacrol.pdb
REMARK  5 active torsions:
REMARK  status: ('A' for Active; 'I' for Inactive)
REMARK    1  A    between atoms: C1_1  and  C2_2
REMARK    2  A    between atoms: C2_2  and  C3_3
REMARK    3  A    between atoms: C2_2  and  C4_4
REMARK    4  A    between atoms: C6_6  and  O1_11
REMARK    5  A    between atoms: C7_7  and  C10_10
REMARK                            x       y       z     vdW  Elec       q    Type
REMARK                         _______ _______ _______ _____ _____    ______ ____
ROOT
ATOM      1  C4  UNL     1       1.464  70.101 133.017  0.00  0.00    +0.000 A 
ATOM      2  C5  UNL     1       0.781  68.880 133.146  0.00  0.00    +0.000 A 
ATOM      3  C6  UNL     1       1.321  67.835 133.910  0.00  0.00    +0.000 A 
ATOM      4  C7  UNL     1       2.558  68.003 134.555  0.00  0.00    +0.000 A 
ATOM      5  C8  UNL     1       3.243  69.222 134.427  0.00  0.00    +0.000 A 
ATOM      6  C9  UNL     1       2.701  70.261 133.666  0.00  0.00    +0.000 A 
ATOM      7  C10 UNL     1       3.143  66.888 135.374  0.00  0.00    +0.000 C 
ENDROOT
BRANCH   1   9
ATOM      8  C1  UNL     1       0.982  72.569 132.911  0.00  0.00    +0.000 C 
ATOM      9  C2  UNL     1       0.866  71.222 132.187  0.00  0.00    +0.000 C 
ATOM     10  C3  UNL     1       1.508  71.284 130.796  0.00  0.00    +0.000 C 
ENDBRANCH   1   9
BRANCH   3  11
ATOM     11  O1  UNL     1       0.631  66.628 134.028  0.00  0.00    +0.000 OA
ATOM     12  H14 UNL     1       0.028  66.286 133.289  0.00  0.00    +0.000 HD
ENDBRANCH   3  11
TORSDOF 2
ENDMDL
