MODEL 1
REMARK VINA RESULT:      -4.5      0.000      0.000
REMARK  Name = .\Carvacrol.pdb
REMARK  5 active torsions:
REMARK  status: ('A' for Active; 'I' for Inactive)
REMARK    1  A    between atoms: C1_1  and  C2_2
REMARK    2  A    between atoms: C2_2  and  C3_3
REMARK    3  A    between atoms: C2_2  and  C4_4
REMARK    4  A    between atoms: C6_6  and  O1_11
REMARK    5  A    between atoms: C7_7  and  C10_10
REMARK                            x       y       z     vdW  Elec       q    Type
REMARK                         _______ _______ _______ _____ _____    ______ ____
ROOT
ATOM      1  C4  UNL     1       3.271  59.707  81.125  0.00  0.00    +0.000 A 
ATOM      2  C5  UNL     1       2.457  60.741  80.630  0.00  0.00    +0.000 A 
ATOM      3  C6  UNL     1       1.573  60.511  79.566  0.00  0.00    +0.000 A 
ATOM      4  C7  UNL     1       1.495  59.234  78.982  0.00  0.00    +0.000 A 
ATOM      5  C8  UNL     1       2.307  58.200  79.474  0.00  0.00    +0.000 A 
ATOM      6  C9  UNL     1       3.186  58.434  80.535  0.00  0.00    +0.000 A 
ATOM      7  C10 UNL     1       0.551  58.980  77.842  0.00  0.00    +0.000 C 
ENDROOT
BRANCH   1   9
ATOM      8  C1  UNL     1       3.741  61.156  83.127  0.00  0.00    +0.000 C 
ATOM      9  C2  UNL     1       4.221  59.974  82.277  0.00  0.00    +0.000 C 
ATOM     10  C3  UNL     1       4.416  58.719  83.136  0.00  0.00    +0.000 C 
ENDBRANCH   1   9
BRANCH   3  11
ATOM     11  O1  UNL     1       0.773  61.547  79.086  0.00  0.00    +0.000 OA
ATOM     12  H14 UNL     1       0.230  62.133  79.710  0.00  0.00    +0.000 HD
ENDBRANCH   3  11
TORSDOF 2
ENDMDL
MODEL 2
REMARK VINA RESULT:      -4.5      1.353      2.034
REMARK  Name = .\Carvacrol.pdb
REMARK  5 active torsions:
REMARK  status: ('A' for Active; 'I' for Inactive)
REMARK    1  A    between atoms: C1_1  and  C2_2
REMARK    2  A    between atoms: C2_2  and  C3_3
REMARK    3  A    between atoms: C2_2  and  C4_4
REMARK    4  A    between atoms: C6_6  and  O1_11
REMARK    5  A    between atoms: C7_7  and  C10_10
REMARK                            x       y       z     vdW  Elec       q    Type
REMARK                         _______ _______ _______ _____ _____    ______ ____
ROOT
ATOM      1  C4  UNL     1       2.868  60.934  80.671  0.00  0.00    +0.000 A 
ATOM      2  C5  UNL     1       1.775  61.020  79.792  0.00  0.00    +0.000 A 
ATOM      3  C6  UNL     1       1.258  59.870  79.177  0.00  0.00    +0.000 A 
ATOM      4  C7  UNL     1       1.835  58.615  79.438  0.00  0.00    +0.000 A 
ATOM      5  C8  UNL     1       2.927  58.526  80.315  0.00  0.00    +0.000 A 
ATOM      6  C9  UNL     1       3.438  59.674  80.926  0.00  0.00    +0.000 A 
ATOM      7  C10 UNL     1       1.287  57.379  78.783  0.00  0.00    +0.000 C 
ENDROOT
BRANCH   1   9
ATOM      8  C1  UNL     1       3.851  61.910  82.771  0.00  0.00    +0.000 C 
ATOM      9  C2  UNL     1       3.415  62.188  81.328  0.00  0.00    +0.000 C 
ATOM     10  C3  UNL     1       4.565  62.785  80.508  0.00  0.00    +0.000 C 
ENDBRANCH   1   9
BRANCH   3  11
ATOM     11  O1  UNL     1       0.173  59.972  78.306  0.00  0.00    +0.000 OA
ATOM     12  H14 UNL     1      -0.495  60.731  78.376  0.00  0.00    +0.000 HD
ENDBRANCH   3  11
TORSDOF 2
ENDMDL
MODEL 3
REMARK VINA RESULT:      -4.4      1.405      3.948
REMARK  Name = .\Carvacrol.pdb
REMARK  5 active torsions:
REMARK  status: ('A' for Active; 'I' for Inactive)
REMARK    1  A    between atoms: C1_1  and  C2_2
REMARK    2  A    between atoms: C2_2  and  C3_3
REMARK    3  A    between atoms: C2_2  and  C4_4
REMARK    4  A    between atoms: C6_6  and  O1_11
REMARK    5  A    between atoms: C7_7  and  C10_10
REMARK                            x       y       z     vdW  Elec       q    Type
REMARK                         _______ _______ _______ _____ _____    ______ ____
ROOT
ATOM      1  C4  UNL     1       1.872  59.398  79.546  0.00  0.00    +0.000 A 
ATOM      2  C5  UNL     1       1.609  60.752  79.279  0.00  0.00    +0.000 A 
ATOM      3  C6  UNL     1       2.304  61.764  79.957  0.00  0.00    +0.000 A 
ATOM      4  C7  UNL     1       3.275  61.427  80.916  0.00  0.00    +0.000 A 
ATOM      5  C8  UNL     1       3.540  60.076  81.185  0.00  0.00    +0.000 A 
ATOM      6  C9  UNL     1       2.846  59.070  80.506  0.00  0.00    +0.000 A 
ATOM      7  C10 UNL     1       4.023  62.506  81.647  0.00  0.00    +0.000 C 
ENDROOT
BRANCH   1   9
ATOM      8  C1  UNL     1       1.217  58.508  77.285  0.00  0.00    +0.000 C 
ATOM      9  C2  UNL     1       1.111  58.315  78.803  0.00  0.00    +0.000 C 
ATOM     10  C3  UNL     1       1.589  56.919  79.217  0.00  0.00    +0.000 C 
ENDBRANCH   1   9
BRANCH   3  11
ATOM     11  O1  UNL     1       2.031  63.104  79.682  0.00  0.00    +0.000 OA
ATOM     12  H14 UNL     1       1.080  63.452  79.625  0.00  0.00    +0.000 HD
ENDBRANCH   3  11
TORSDOF 2
ENDMDL
MODEL 4
REMARK VINA RESULT:      -4.4      2.047      4.370
REMARK  Name = .\Carvacrol.pdb
REMARK  5 active torsions:
REMARK  status: ('A' for Active; 'I' for Inactive)
REMARK    1  A    between atoms: C1_1  and  C2_2
REMARK    2  A    between atoms: C2_2  and  C3_3
REMARK    3  A    between atoms: C2_2  and  C4_4
REMARK    4  A    between atoms: C6_6  and  O1_11
REMARK    5  A    between atoms: C7_7  and  C10_10
REMARK                            x       y       z     vdW  Elec       q    Type
REMARK                         _______ _______ _______ _____ _____    ______ ____
ROOT
ATOM      1  C4  UNL     1       1.763  59.482  79.462  0.00  0.00    +0.000 A 
ATOM      2  C5  UNL     1       2.853  59.242  80.317  0.00  0.00    +0.000 A 
ATOM      3  C6  UNL     1       3.506  60.304  80.959  0.00  0.00    +0.000 A 
ATOM      4  C7  UNL     1       3.072  61.625  80.750  0.00  0.00    +0.000 A 
ATOM      5  C8  UNL     1       1.984  61.867  79.897  0.00  0.00    +0.000 A 
ATOM      6  C9  UNL     1       1.336  60.806  79.260  0.00  0.00    +0.000 A 
ATOM      7  C10 UNL     1       3.767  62.768  81.435  0.00  0.00    +0.000 C 
ENDROOT
BRANCH   1   9
ATOM      8  C1  UNL     1       1.184  58.432  77.250  0.00  0.00    +0.000 C 
ATOM      9  C2  UNL     1       1.068  58.321  78.775  0.00  0.00    +0.000 C 
ATOM     10  C3  UNL     1       1.612  56.977  79.274  0.00  0.00    +0.000 C 
ENDBRANCH   1   9
BRANCH   3  11
ATOM     11  O1  UNL     1       4.587  60.051  81.804  0.00  0.00    +0.000 OA
ATOM     12  H14 UNL     1       5.180  60.798  82.147  0.00  0.00    +0.000 HD
ENDBRANCH   3  11
TORSDOF 2
ENDMDL
MODEL 5
REMARK VINA RESULT:      -4.4      1.594      2.384
REMARK  Name = .\Carvacrol.pdb
REMARK  5 active torsions:
REMARK  status: ('A' for Active; 'I' for Inactive)
REMARK    1  A    between atoms: C1_1  and  C2_2
REMARK    2  A    between atoms: C2_2  and  C3_3
REMARK    3  A    between atoms: C2_2  and  C4_4
REMARK    4  A    between atoms: C6_6  and  O1_11
REMARK    5  A    between atoms: C7_7  and  C10_10
REMARK                            x       y       z     vdW  Elec       q    Type
REMARK                         _______ _______ _______ _____ _____    ______ ____
ROOT
ATOM      1  C4  UNL     1       3.108  61.553  80.693  0.00  0.00    +0.000 A 
ATOM      2  C5  UNL     1       1.984  61.531  79.850  0.00  0.00    +0.000 A 
ATOM      3  C6  UNL     1       1.453  60.314  79.398  0.00  0.00    +0.000 A 
ATOM      4  C7  UNL     1       2.046  59.100  79.787  0.00  0.00    +0.000 A 
ATOM      5  C8  UNL     1       3.169  59.121  80.629  0.00  0.00    +0.000 A 
ATOM      6  C9  UNL     1       3.695  60.335  81.078  0.00  0.00    +0.000 A 
ATOM      7  C10 UNL     1       1.483  57.793  79.307  0.00  0.00    +0.000 C 
ENDROOT
BRANCH   1   9
ATOM      8  C1  UNL     1       2.789  64.049  80.720  0.00  0.00    +0.000 C 
ATOM      9  C2  UNL     1       3.670  62.879  81.173  0.00  0.00    +0.000 C 
ATOM     10  C3  UNL     1       3.854  62.883  82.695  0.00  0.00    +0.000 C 
ENDBRANCH   1   9
BRANCH   3  11
ATOM     11  O1  UNL     1       0.337  60.307  78.560  0.00  0.00    +0.000 OA
ATOM     12  H14 UNL     1      -0.278  59.503  78.500  0.00  0.00    +0.000 HD
ENDBRANCH   3  11
TORSDOF 2
ENDMDL
MODEL 6
REMARK VINA RESULT:      -4.2      1.570      3.107
REMARK  Name = .\Carvacrol.pdb
REMARK  5 active torsions:
REMARK  status: ('A' for Active; 'I' for Inactive)
REMARK    1  A    between atoms: C1_1  and  C2_2
REMARK    2  A    between atoms: C2_2  and  C3_3
REMARK    3  A    between atoms: C2_2  and  C4_4
REMARK    4  A    between atoms: C6_6  and  O1_11
REMARK    5  A    between atoms: C7_7  and  C10_10
REMARK                            x       y       z     vdW  Elec       q    Type
REMARK                         _______ _______ _______ _____ _____    ______ ____
ROOT
ATOM      1  C4  UNL     1       2.788  57.905  80.098  0.00  0.00    +0.000 A 
ATOM      2  C5  UNL     1       1.793  58.141  79.134  0.00  0.00    +0.000 A 
ATOM      3  C6  UNL     1       1.263  59.427  78.952  0.00  0.00    +0.000 A 
ATOM      4  C7  UNL     1       1.726  60.495  79.739  0.00  0.00    +0.000 A 
ATOM      5  C8  UNL     1       2.720  60.262  80.702  0.00  0.00    +0.000 A 
ATOM      6  C9  UNL     1       3.246  58.980  80.880  0.00  0.00    +0.000 A 
ATOM      7  C10 UNL     1       1.163  61.875  79.549  0.00  0.00    +0.000 C 
ENDROOT
BRANCH   1   9
ATOM      8  C1  UNL     1       4.217  56.423  81.544  0.00  0.00    +0.000 C 
ATOM      9  C2  UNL     1       3.350  56.507  80.282  0.00  0.00    +0.000 C 
ATOM     10  C3  UNL     1       2.231  55.460  80.310  0.00  0.00    +0.000 C 
ENDBRANCH   1   9
BRANCH   3  11
ATOM     11  O1  UNL     1       0.275  59.645  77.991  0.00  0.00    +0.000 OA
ATOM     12  H14 UNL     1      -0.678  59.327  78.127  0.00  0.00    +0.000 HD
ENDBRANCH   3  11
TORSDOF 2
ENDMDL
MODEL 7
REMARK VINA RESULT:      -4.2      2.279      3.155
REMARK  Name = .\Carvacrol.pdb
REMARK  5 active torsions:
REMARK  status: ('A' for Active; 'I' for Inactive)
REMARK    1  A    between atoms: C1_1  and  C2_2
REMARK    2  A    between atoms: C2_2  and  C3_3
REMARK    3  A    between atoms: C2_2  and  C4_4
REMARK    4  A    between atoms: C6_6  and  O1_11
REMARK    5  A    between atoms: C7_7  and  C10_10
REMARK                            x       y       z     vdW  Elec       q    Type
REMARK                         _______ _______ _______ _____ _____    ______ ____
ROOT
ATOM      1  C4  UNL     1       3.170  62.021  80.733  0.00  0.00    +0.000 A 
ATOM      2  C5  UNL     1       3.698  60.769  81.095  0.00  0.00    +0.000 A 
ATOM      3  C6  UNL     1       3.146  59.585  80.584  0.00  0.00    +0.000 A 
ATOM      4  C7  UNL     1       2.055  59.643  79.700  0.00  0.00    +0.000 A 
ATOM      5  C8  UNL     1       1.527  60.892  79.338  0.00  0.00    +0.000 A 
ATOM      6  C9  UNL     1       2.079  62.069  79.848  0.00  0.00    +0.000 A 
ATOM      7  C10 UNL     1       1.459  58.379  79.149  0.00  0.00    +0.000 C 
ENDROOT
BRANCH   1   9
ATOM      8  C1  UNL     1       2.919  64.514  80.954  0.00  0.00    +0.000 C 
ATOM      9  C2  UNL     1       3.779  63.292  81.295  0.00  0.00    +0.000 C 
ATOM     10  C3  UNL     1       4.001  63.177  82.808  0.00  0.00    +0.000 C 
ENDBRANCH   1   9
BRANCH   3  11
ATOM     11  O1  UNL     1       3.680  58.350  80.953  0.00  0.00    +0.000 OA
ATOM     12  H14 UNL     1       3.104  57.517  81.009  0.00  0.00    +0.000 HD
ENDBRANCH   3  11
TORSDOF 2
ENDMDL
MODEL 8
REMARK VINA RESULT:      -4.1      1.773      2.549
REMARK  Name = .\Carvacrol.pdb
REMARK  5 active torsions:
REMARK  status: ('A' for Active; 'I' for Inactive)
REMARK    1  A    between atoms: C1_1  and  C2_2
REMARK    2  A    between atoms: C2_2  and  C3_3
REMARK    3  A    between atoms: C2_2  and  C4_4
REMARK    4  A    between atoms: C6_6  and  O1_11
REMARK    5  A    between atoms: C7_7  and  C10_10
REMARK                            x       y       z     vdW  Elec       q    Type
REMARK                         _______ _______ _______ _____ _____    ______ ____
ROOT
ATOM      1  C4  UNL     1       2.802  60.485  80.920  0.00  0.00    +0.000 A 
ATOM      2  C5  UNL     1       3.096  59.120  80.765  0.00  0.00    +0.000 A 
ATOM      3  C6  UNL     1       2.474  58.362  79.762  0.00  0.00    +0.000 A 
ATOM      4  C7  UNL     1       1.545  58.969  78.899  0.00  0.00    +0.000 A 
ATOM      5  C8  UNL     1       1.250  60.333  79.051  0.00  0.00    +0.000 A 
ATOM      6  C9  UNL     1       1.872  61.083  80.051  0.00  0.00    +0.000 A 
ATOM      7  C10 UNL     1       0.874  58.164  77.822  0.00  0.00    +0.000 C 
ENDROOT
BRANCH   1   9
ATOM      8  C1  UNL     1       4.548  60.452  82.732  0.00  0.00    +0.000 C 
ATOM      9  C2  UNL     1       3.485  61.289  82.011  0.00  0.00    +0.000 C 
ATOM     10  C3  UNL     1       4.088  62.583  81.449  0.00  0.00    +0.000 C 
ENDBRANCH   1   9
BRANCH   3  11
ATOM     11  O1  UNL     1       2.775  57.007  79.621  0.00  0.00    +0.000 OA
ATOM     12  H14 UNL     1       3.369  56.523  80.284  0.00  0.00    +0.000 HD
ENDBRANCH   3  11
TORSDOF 2
ENDMDL
MODEL 9
REMARK VINA RESULT:      -4.1      2.635      4.127
REMARK  Name = .\Carvacrol.pdb
REMARK  5 active torsions:
REMARK  status: ('A' for Active; 'I' for Inactive)
REMARK    1  A    between atoms: C1_1  and  C2_2
REMARK    2  A    between atoms: C2_2  and  C3_3
REMARK    3  A    between atoms: C2_2  and  C4_4
REMARK    4  A    between atoms: C6_6  and  O1_11
REMARK    5  A    between atoms: C7_7  and  C10_10
REMARK                            x       y       z     vdW  Elec       q    Type
REMARK                         _______ _______ _______ _____ _____    ______ ____
ROOT
ATOM      1  C4  UNL     1       3.429  60.783  81.651  0.00  0.00    +0.000 A 
ATOM      2  C5  UNL     1       3.801  61.705  82.645  0.00  0.00    +0.000 A 
ATOM      3  C6  UNL     1       3.758  63.084  82.395  0.00  0.00    +0.000 A 
ATOM      4  C7  UNL     1       3.339  63.558  81.139  0.00  0.00    +0.000 A 
ATOM      5  C8  UNL     1       2.967  62.639  80.145  0.00  0.00    +0.000 A 
ATOM      6  C9  UNL     1       3.011  61.266  80.398  0.00  0.00    +0.000 A 
ATOM      7  C10 UNL     1       3.291  65.033  80.864  0.00  0.00    +0.000 C 
ENDROOT
BRANCH   1   9
ATOM      8  C1  UNL     1       3.151  58.478  80.683  0.00  0.00    +0.000 C 
ATOM      9  C2  UNL     1       3.481  59.294  81.938  0.00  0.00    +0.000 C 
ATOM     10  C3  UNL     1       4.842  58.890  82.519  0.00  0.00    +0.000 C 
ENDBRANCH   1   9
BRANCH   3  11
ATOM     11  O1  UNL     1       4.131  63.986  83.391  0.00  0.00    +0.000 OA
ATOM     12  H14 UNL     1       4.010  63.772  84.375  0.00  0.00    +0.000 HD
ENDBRANCH   3  11
TORSDOF 2
ENDMDL
