MODEL 1
REMARK VINA RESULT:      -4.7      0.000      0.000
REMARK  Name = .\Carvone.pdb
REMARK  3 active torsions:
REMARK  status: ('A' for Active; 'I' for Inactive)
REMARK    1  A    between atoms: C1_1  and  C2_2
REMARK    2  A    between atoms: C7_8  and  C8_9
REMARK    3  A    between atoms: C7_8  and  C9_10
REMARK                            x       y       z     vdW  Elec       q    Type
REMARK                         _______ _______ _______ _____ _____    ______ ____
ROOT
ATOM      1  C1  UNL     1      -0.853  75.877  82.944  0.00  0.00    +0.000 C 
ATOM      2  C2  UNL     1      -0.884  75.416  84.381  0.00  0.00    +0.000 C 
ATOM      3  C3  UNL     1       0.118  75.818  85.179  0.00  0.00    +0.000 C 
ATOM      4  C4  UNL     1       0.174  75.422  86.587  0.00  0.00    +0.000 C 
ATOM      5  O1  UNL     1       1.123  75.813  87.317  0.00  0.00    +0.000 OA
ATOM      6  C5  UNL     1      -0.875  74.572  87.141  0.00  0.00    +0.000 C 
ATOM      7  C6  UNL     1      -1.884  74.157  86.375  0.00  0.00    +0.000 C 
ATOM      8  C7  UNL     1      -2.024  74.518  84.901  0.00  0.00    +0.000 C 
ATOM      9  C8  UNL     1      -2.044  73.198  84.105  0.00  0.00    +0.000 C 
ATOM     10  C9  UNL     1      -3.371  75.248  84.734  0.00  0.00    +0.000 C 
ENDROOT
TORSDOF 0
ENDMDL
MODEL 2
REMARK VINA RESULT:      -4.4      6.924      8.737
REMARK  Name = .\Carvone.pdb
REMARK  3 active torsions:
REMARK  status: ('A' for Active; 'I' for Inactive)
REMARK    1  A    between atoms: C1_1  and  C2_2
REMARK    2  A    between atoms: C7_8  and  C8_9
REMARK    3  A    between atoms: C7_8  and  C9_10
REMARK                            x       y       z     vdW  Elec       q    Type
REMARK                         _______ _______ _______ _____ _____    ______ ____
ROOT
ATOM      1  C1  UNL     1       0.909  81.782  84.324  0.00  0.00    +0.000 C 
ATOM      2  C2  UNL     1       0.725  81.698  82.828  0.00  0.00    +0.000 C 
ATOM      3  C3  UNL     1      -0.001  80.674  82.353  0.00  0.00    +0.000 C 
ATOM      4  C4  UNL     1      -0.234  80.508  80.918  0.00  0.00    +0.000 C 
ATOM      5  O1  UNL     1      -0.920  79.540  80.495  0.00  0.00    +0.000 OA
ATOM      6  C5  UNL     1       0.332  81.471  79.977  0.00  0.00    +0.000 C 
ATOM      7  C6  UNL     1       1.057  82.499  80.417  0.00  0.00    +0.000 C 
ATOM      8  C7  UNL     1       1.351  82.751  81.892  0.00  0.00    +0.000 C 
ATOM      9  C8  UNL     1       2.883  82.744  82.061  0.00  0.00    +0.000 C 
ATOM     10  C9  UNL     1       0.794  84.145  82.239  0.00  0.00    +0.000 C 
ENDROOT
TORSDOF 0
ENDMDL
MODEL 3
REMARK VINA RESULT:      -4.4      6.362      7.996
REMARK  Name = .\Carvone.pdb
REMARK  3 active torsions:
REMARK  status: ('A' for Active; 'I' for Inactive)
REMARK    1  A    between atoms: C1_1  and  C2_2
REMARK    2  A    between atoms: C7_8  and  C8_9
REMARK    3  A    between atoms: C7_8  and  C9_10
REMARK                            x       y       z     vdW  Elec       q    Type
REMARK                         _______ _______ _______ _____ _____    ______ ____
ROOT
ATOM      1  C1  UNL     1       1.216  81.661  79.657  0.00  0.00    +0.000 C 
ATOM      2  C2  UNL     1       1.010  81.436  81.136  0.00  0.00    +0.000 C 
ATOM      3  C3  UNL     1       0.417  80.290  81.507  0.00  0.00    +0.000 C 
ATOM      4  C4  UNL     1       0.174  79.983  82.918  0.00  0.00    +0.000 C 
ATOM      5  O1  UNL     1      -0.383  78.902  83.243  0.00  0.00    +0.000 OA
ATOM      6  C5  UNL     1       0.581  80.937  83.946  0.00  0.00    +0.000 C 
ATOM      7  C6  UNL     1       1.173  82.083  83.609  0.00  0.00    +0.000 C 
ATOM      8  C7  UNL     1       1.465  82.486  82.168  0.00  0.00    +0.000 C 
ATOM      9  C8  UNL     1       0.732  83.817  81.907  0.00  0.00    +0.000 C 
ATOM     10  C9  UNL     1       2.987  82.698  82.051  0.00  0.00    +0.000 C 
ENDROOT
TORSDOF 0
ENDMDL
MODEL 4
REMARK VINA RESULT:      -4.3      5.151      6.627
REMARK  Name = .\Carvone.pdb
REMARK  3 active torsions:
REMARK  status: ('A' for Active; 'I' for Inactive)
REMARK    1  A    between atoms: C1_1  and  C2_2
REMARK    2  A    between atoms: C7_8  and  C8_9
REMARK    3  A    between atoms: C7_8  and  C9_10
REMARK                            x       y       z     vdW  Elec       q    Type
REMARK                         _______ _______ _______ _____ _____    ______ ____
ROOT
ATOM      1  C1  UNL     1      -8.219  77.692  82.243  0.00  0.00    +0.000 C 
ATOM      2  C2  UNL     1      -7.230  76.684  82.775  0.00  0.00    +0.000 C 
ATOM      3  C3  UNL     1      -7.711  75.702  83.555  0.00  0.00    +0.000 C 
ATOM      4  C4  UNL     1      -6.830  74.678  84.118  0.00  0.00    +0.000 C 
ATOM      5  O1  UNL     1      -7.303  73.767  84.847  0.00  0.00    +0.000 OA
ATOM      6  C5  UNL     1      -5.399  74.718  83.831  0.00  0.00    +0.000 C 
ATOM      7  C6  UNL     1      -4.891  75.679  83.059  0.00  0.00    +0.000 C 
ATOM      8  C7  UNL     1      -5.731  76.785  82.432  0.00  0.00    +0.000 C 
ATOM      9  C8  UNL     1      -5.175  78.129  82.943  0.00  0.00    +0.000 C 
ATOM     10  C9  UNL     1      -5.545  76.692  80.905  0.00  0.00    +0.000 C 
ENDROOT
TORSDOF 0
ENDMDL
MODEL 5
REMARK VINA RESULT:      -4.3      6.726      8.343
REMARK  Name = .\Carvone.pdb
REMARK  3 active torsions:
REMARK  status: ('A' for Active; 'I' for Inactive)
REMARK    1  A    between atoms: C1_1  and  C2_2
REMARK    2  A    between atoms: C7_8  and  C8_9
REMARK    3  A    between atoms: C7_8  and  C9_10
REMARK                            x       y       z     vdW  Elec       q    Type
REMARK                         _______ _______ _______ _____ _____    ______ ____
ROOT
ATOM      1  C1  UNL     1       0.835  81.825  84.416  0.00  0.00    +0.000 C 
ATOM      2  C2  UNL     1       1.184  81.777  82.948  0.00  0.00    +0.000 C 
ATOM      3  C3  UNL     1       2.288  82.432  82.555  0.00  0.00    +0.000 C 
ATOM      4  C4  UNL     1       2.706  82.443  81.153  0.00  0.00    +0.000 C 
ATOM      5  O1  UNL     1       3.746  83.064  80.808  0.00  0.00    +0.000 OA
ATOM      6  C5  UNL     1       1.913  81.730  80.155  0.00  0.00    +0.000 C 
ATOM      7  C6  UNL     1       0.812  81.070  80.514  0.00  0.00    +0.000 C 
ATOM      8  C7  UNL     1       0.301  81.004  81.948  0.00  0.00    +0.000 C 
ATOM      9  C8  UNL     1      -1.123  81.596  81.955  0.00  0.00    +0.000 C 
ATOM     10  C9  UNL     1       0.249  79.517  82.349  0.00  0.00    +0.000 C 
ENDROOT
TORSDOF 0
ENDMDL
MODEL 6
REMARK VINA RESULT:      -4.2      6.912      8.172
REMARK  Name = .\Carvone.pdb
REMARK  3 active torsions:
REMARK  status: ('A' for Active; 'I' for Inactive)
REMARK    1  A    between atoms: C1_1  and  C2_2
REMARK    2  A    between atoms: C7_8  and  C8_9
REMARK    3  A    between atoms: C7_8  and  C9_10
REMARK                            x       y       z     vdW  Elec       q    Type
REMARK                         _______ _______ _______ _____ _____    ______ ____
ROOT
ATOM      1  C1  UNL     1       3.354  82.938  80.640  0.00  0.00    +0.000 C 
ATOM      2  C2  UNL     1       2.239  82.270  81.407  0.00  0.00    +0.000 C 
ATOM      3  C3  UNL     1       2.089  82.610  82.697  0.00  0.00    +0.000 C 
ATOM      4  C4  UNL     1       1.036  82.016  83.522  0.00  0.00    +0.000 C 
ATOM      5  O1  UNL     1       0.914  82.351  84.730  0.00  0.00    +0.000 OA
ATOM      6  C5  UNL     1       0.127  81.034  82.938  0.00  0.00    +0.000 C 
ATOM      7  C6  UNL     1       0.249  80.677  81.660  0.00  0.00    +0.000 C 
ATOM      8  C7  UNL     1       1.314  81.241  80.727  0.00  0.00    +0.000 C 
ATOM      9  C8  UNL     1       2.153  80.053  80.217  0.00  0.00    +0.000 C 
ATOM     10  C9  UNL     1       0.582  81.907  79.545  0.00  0.00    +0.000 C 
ENDROOT
TORSDOF 0
ENDMDL
MODEL 7
REMARK VINA RESULT:      -4.1      4.309      6.034
REMARK  Name = .\Carvone.pdb
REMARK  3 active torsions:
REMARK  status: ('A' for Active; 'I' for Inactive)
REMARK    1  A    between atoms: C1_1  and  C2_2
REMARK    2  A    between atoms: C7_8  and  C8_9
REMARK    3  A    between atoms: C7_8  and  C9_10
REMARK                            x       y       z     vdW  Elec       q    Type
REMARK                         _______ _______ _______ _____ _____    ______ ____
ROOT
ATOM      1  C1  UNL     1      -3.195  75.769  83.608  0.00  0.00    +0.000 C 
ATOM      2  C2  UNL     1      -4.704  75.781  83.560  0.00  0.00    +0.000 C 
ATOM      3  C3  UNL     1      -5.346  74.730  84.095  0.00  0.00    +0.000 C 
ATOM      4  C4  UNL     1      -6.807  74.653  84.096  0.00  0.00    +0.000 C 
ATOM      5  O1  UNL     1      -7.388  73.657  84.603  0.00  0.00    +0.000 OA
ATOM      6  C5  UNL     1      -7.589  75.735  83.505  0.00  0.00    +0.000 C 
ATOM      7  C6  UNL     1      -6.982  76.792  82.967  0.00  0.00    +0.000 C 
ATOM      8  C7  UNL     1      -5.467  76.958  82.921  0.00  0.00    +0.000 C 
ATOM      9  C8  UNL     1      -5.065  77.088  81.439  0.00  0.00    +0.000 C 
ATOM     10  C9  UNL     1      -5.126  78.261  83.670  0.00  0.00    +0.000 C 
ENDROOT
TORSDOF 0
ENDMDL
MODEL 8
REMARK VINA RESULT:      -4.1      4.598      6.335
REMARK  Name = .\Carvone.pdb
REMARK  3 active torsions:
REMARK  status: ('A' for Active; 'I' for Inactive)
REMARK    1  A    between atoms: C1_1  and  C2_2
REMARK    2  A    between atoms: C7_8  and  C8_9
REMARK    3  A    between atoms: C7_8  and  C9_10
REMARK                            x       y       z     vdW  Elec       q    Type
REMARK                         _______ _______ _______ _____ _____    ______ ____
ROOT
ATOM      1  C1  UNL     1       0.794  81.653  84.032  0.00  0.00    +0.000 C 
ATOM      2  C2  UNL     1       0.348  80.470  83.208  0.00  0.00    +0.000 C 
ATOM      3  C3  UNL     1       0.466  79.253  83.763  0.00  0.00    +0.000 C 
ATOM      4  C4  UNL     1       0.059  78.046  83.041  0.00  0.00    +0.000 C 
ATOM      5  O1  UNL     1       0.179  76.915  83.582  0.00  0.00    +0.000 OA
ATOM      6  C5  UNL     1      -0.485  78.160  81.691  0.00  0.00    +0.000 C 
ATOM      7  C6  UNL     1      -0.615  79.354  81.113  0.00  0.00    +0.000 C 
ATOM      8  C7  UNL     1      -0.218  80.662  81.787  0.00  0.00    +0.000 C 
ATOM      9  C8  UNL     1       0.844  81.334  80.895  0.00  0.00    +0.000 C 
ATOM     10  C9  UNL     1      -1.480  81.545  81.850  0.00  0.00    +0.000 C 
ENDROOT
TORSDOF 0
ENDMDL
MODEL 9
REMARK VINA RESULT:      -4.0      3.259      5.133
REMARK  Name = .\Carvone.pdb
REMARK  3 active torsions:
REMARK  status: ('A' for Active; 'I' for Inactive)
REMARK    1  A    between atoms: C1_1  and  C2_2
REMARK    2  A    between atoms: C7_8  and  C8_9
REMARK    3  A    between atoms: C7_8  and  C9_10
REMARK                            x       y       z     vdW  Elec       q    Type
REMARK                         _______ _______ _______ _____ _____    ______ ____
ROOT
ATOM      1  C1  UNL     1      -6.829  74.669  84.007  0.00  0.00    +0.000 C 
ATOM      2  C2  UNL     1      -5.559  75.397  83.636  0.00  0.00    +0.000 C 
ATOM      3  C3  UNL     1      -4.397  74.832  84.000  0.00  0.00    +0.000 C 
ATOM      4  C4  UNL     1      -3.114  75.463  83.686  0.00  0.00    +0.000 C 
ATOM      5  O1  UNL     1      -2.036  74.915  84.037  0.00  0.00    +0.000 OA
ATOM      6  C5  UNL     1      -3.090  76.731  82.963  0.00  0.00    +0.000 C 
ATOM      7  C6  UNL     1      -4.227  77.317  82.587  0.00  0.00    +0.000 C 
ATOM      8  C7  UNL     1      -5.607  76.734  82.871  0.00  0.00    +0.000 C 
ATOM      9  C8  UNL     1      -6.382  77.776  83.702  0.00  0.00    +0.000 C 
ATOM     10  C9  UNL     1      -6.304  76.526  81.513  0.00  0.00    +0.000 C 
ENDROOT
TORSDOF 0
ENDMDL
