MODEL 1
REMARK VINA RESULT:      -5.0      0.000      0.000
REMARK  Name = .\Carvone.pdb
REMARK  3 active torsions:
REMARK  status: ('A' for Active; 'I' for Inactive)
REMARK    1  A    between atoms: C1_1  and  C2_2
REMARK    2  A    between atoms: C7_8  and  C8_9
REMARK    3  A    between atoms: C7_8  and  C9_10
REMARK                            x       y       z     vdW  Elec       q    Type
REMARK                         _______ _______ _______ _____ _____    ______ ____
ROOT
ATOM      1  C1  UNL     1       7.376  69.378  75.917  0.00  0.00    +0.000 C 
ATOM      2  C2  UNL     1       7.615  70.111  77.215  0.00  0.00    +0.000 C 
ATOM      3  C3  UNL     1       7.081  71.337  77.336  0.00  0.00    +0.000 C 
ATOM      4  C4  UNL     1       7.258  72.126  78.556  0.00  0.00    +0.000 C 
ATOM      5  O1  UNL     1       6.748  73.274  78.647  0.00  0.00    +0.000 OA
ATOM      6  C5  UNL     1       8.028  71.576  79.668  0.00  0.00    +0.000 C 
ATOM      7  C6  UNL     1       8.570  70.361  79.579  0.00  0.00    +0.000 C 
ATOM      8  C7  UNL     1       8.438  69.470  78.349  0.00  0.00    +0.000 C 
ATOM      9  C8  UNL     1       9.864  69.172  77.844  0.00  0.00    +0.000 C 
ATOM     10  C9  UNL     1       7.761  68.162  78.801  0.00  0.00    +0.000 C 
ENDROOT
TORSDOF 0
ENDMDL
MODEL 2
REMARK VINA RESULT:      -4.8      2.089      3.319
REMARK  Name = .\Carvone.pdb
REMARK  3 active torsions:
REMARK  status: ('A' for Active; 'I' for Inactive)
REMARK    1  A    between atoms: C1_1  and  C2_2
REMARK    2  A    between atoms: C7_8  and  C8_9
REMARK    3  A    between atoms: C7_8  and  C9_10
REMARK                            x       y       z     vdW  Elec       q    Type
REMARK                         _______ _______ _______ _____ _____    ______ ____
ROOT
ATOM      1  C1  UNL     1       7.595  71.711  79.036  0.00  0.00    +0.000 C 
ATOM      2  C2  UNL     1       7.953  70.471  78.252  0.00  0.00    +0.000 C 
ATOM      3  C3  UNL     1       7.394  70.325  77.041  0.00  0.00    +0.000 C 
ATOM      4  C4  UNL     1       7.681  69.157  76.207  0.00  0.00    +0.000 C 
ATOM      5  O1  UNL     1       7.144  69.041  75.074  0.00  0.00    +0.000 OA
ATOM      6  C5  UNL     1       8.592  68.126  76.696  0.00  0.00    +0.000 C 
ATOM      7  C6  UNL     1       9.164  68.242  77.894  0.00  0.00    +0.000 C 
ATOM      8  C7  UNL     1       8.924  69.422  78.829  0.00  0.00    +0.000 C 
ATOM      9  C8  UNL     1       8.349  68.856  80.143  0.00  0.00    +0.000 C 
ATOM     10  C9  UNL     1      10.292  70.079  79.099  0.00  0.00    +0.000 C 
ENDROOT
TORSDOF 0
ENDMDL
MODEL 3
REMARK VINA RESULT:      -4.7      1.537      2.035
REMARK  Name = .\Carvone.pdb
REMARK  3 active torsions:
REMARK  status: ('A' for Active; 'I' for Inactive)
REMARK    1  A    between atoms: C1_1  and  C2_2
REMARK    2  A    between atoms: C7_8  and  C8_9
REMARK    3  A    between atoms: C7_8  and  C9_10
REMARK                            x       y       z     vdW  Elec       q    Type
REMARK                         _______ _______ _______ _____ _____    ______ ____
ROOT
ATOM      1  C1  UNL     1       9.168  67.799  77.097  0.00  0.00    +0.000 C 
ATOM      2  C2  UNL     1       8.462  69.100  77.389  0.00  0.00    +0.000 C 
ATOM      3  C3  UNL     1       7.695  69.616  76.416  0.00  0.00    +0.000 C 
ATOM      4  C4  UNL     1       6.971  70.874  76.606  0.00  0.00    +0.000 C 
ATOM      5  O1  UNL     1       6.256  71.339  75.678  0.00  0.00    +0.000 OA
ATOM      6  C5  UNL     1       7.081  71.588  77.874  0.00  0.00    +0.000 C 
ATOM      7  C6  UNL     1       7.834  71.101  78.860  0.00  0.00    +0.000 C 
ATOM      8  C7  UNL     1       8.622  69.801  78.753  0.00  0.00    +0.000 C 
ATOM      9  C8  UNL     1      10.107  70.145  78.984  0.00  0.00    +0.000 C 
ATOM     10  C9  UNL     1       8.123  68.868  79.873  0.00  0.00    +0.000 C 
ENDROOT
TORSDOF 0
ENDMDL
MODEL 4
REMARK VINA RESULT:      -4.6      1.340      1.683
REMARK  Name = .\Carvone.pdb
REMARK  3 active torsions:
REMARK  status: ('A' for Active; 'I' for Inactive)
REMARK    1  A    between atoms: C1_1  and  C2_2
REMARK    2  A    between atoms: C7_8  and  C8_9
REMARK    3  A    between atoms: C7_8  and  C9_10
REMARK                            x       y       z     vdW  Elec       q    Type
REMARK                         _______ _______ _______ _____ _____    ______ ____
ROOT
ATOM      1  C1  UNL     1       7.796  69.011  76.134  0.00  0.00    +0.000 C 
ATOM      2  C2  UNL     1       8.056  69.212  77.607  0.00  0.00    +0.000 C 
ATOM      3  C3  UNL     1       7.985  70.466  78.080  0.00  0.00    +0.000 C 
ATOM      4  C4  UNL     1       8.221  70.760  79.494  0.00  0.00    +0.000 C 
ATOM      5  O1  UNL     1       8.149  71.945  79.915  0.00  0.00    +0.000 OA
ATOM      6  C5  UNL     1       8.541  69.673  80.415  0.00  0.00    +0.000 C 
ATOM      7  C6  UNL     1       8.618  68.417  79.977  0.00  0.00    +0.000 C 
ATOM      8  C7  UNL     1       8.388  68.018  78.523  0.00  0.00    +0.000 C 
ATOM      9  C8  UNL     1       9.676  67.331  78.028  0.00  0.00    +0.000 C 
ATOM     10  C9  UNL     1       7.221  67.012  78.504  0.00  0.00    +0.000 C 
ENDROOT
TORSDOF 0
ENDMDL
MODEL 5
REMARK VINA RESULT:      -4.5      2.605      3.669
REMARK  Name = .\Carvone.pdb
REMARK  3 active torsions:
REMARK  status: ('A' for Active; 'I' for Inactive)
REMARK    1  A    between atoms: C1_1  and  C2_2
REMARK    2  A    between atoms: C7_8  and  C8_9
REMARK    3  A    between atoms: C7_8  and  C9_10
REMARK                            x       y       z     vdW  Elec       q    Type
REMARK                         _______ _______ _______ _____ _____    ______ ____
ROOT
ATOM      1  C1  UNL     1       8.014  69.229  76.636  0.00  0.00    +0.000 C 
ATOM      2  C2  UNL     1       8.033  68.857  78.099  0.00  0.00    +0.000 C 
ATOM      3  C3  UNL     1       7.553  67.649  78.433  0.00  0.00    +0.000 C 
ATOM      4  C4  UNL     1       7.530  67.199  79.826  0.00  0.00    +0.000 C 
ATOM      5  O1  UNL     1       7.075  66.061  80.116  0.00  0.00    +0.000 OA
ATOM      6  C5  UNL     1       8.037  68.075  80.878  0.00  0.00    +0.000 C 
ATOM      7  C6  UNL     1       8.521  69.281  80.578  0.00  0.00    +0.000 C 
ATOM      8  C7  UNL     1       8.584  69.832  79.158  0.00  0.00    +0.000 C 
ATOM      9  C8  UNL     1       7.761  71.135  79.136  0.00  0.00    +0.000 C 
ATOM     10  C9  UNL     1      10.062  70.143  78.853  0.00  0.00    +0.000 C 
ENDROOT
TORSDOF 0
ENDMDL
MODEL 6
REMARK VINA RESULT:      -4.4      2.498      3.998
REMARK  Name = .\Carvone.pdb
REMARK  3 active torsions:
REMARK  status: ('A' for Active; 'I' for Inactive)
REMARK    1  A    between atoms: C1_1  and  C2_2
REMARK    2  A    between atoms: C7_8  and  C8_9
REMARK    3  A    between atoms: C7_8  and  C9_10
REMARK                            x       y       z     vdW  Elec       q    Type
REMARK                         _______ _______ _______ _____ _____    ______ ____
ROOT
ATOM      1  C1  UNL     1       8.135  68.302  80.839  0.00  0.00    +0.000 C 
ATOM      2  C2  UNL     1       7.923  68.422  79.349  0.00  0.00    +0.000 C 
ATOM      3  C3  UNL     1       7.295  67.409  78.733  0.00  0.00    +0.000 C 
ATOM      4  C4  UNL     1       7.043  67.434  77.291  0.00  0.00    +0.000 C 
ATOM      5  O1  UNL     1       6.452  66.472  76.735  0.00  0.00    +0.000 OA
ATOM      6  C5  UNL     1       7.482  68.581  76.501  0.00  0.00    +0.000 C 
ATOM      7  C6  UNL     1       8.108  69.603  77.084  0.00  0.00    +0.000 C 
ATOM      8  C7  UNL     1       8.412  69.663  78.576  0.00  0.00    +0.000 C 
ATOM      9  C8  UNL     1       9.940  69.794  78.728  0.00  0.00    +0.000 C 
ATOM     10  C9  UNL     1       7.722  70.923  79.135  0.00  0.00    +0.000 C 
ENDROOT
TORSDOF 0
ENDMDL
MODEL 7
REMARK VINA RESULT:      -4.4      1.488      2.909
REMARK  Name = .\Carvone.pdb
REMARK  3 active torsions:
REMARK  status: ('A' for Active; 'I' for Inactive)
REMARK    1  A    between atoms: C1_1  and  C2_2
REMARK    2  A    between atoms: C7_8  and  C8_9
REMARK    3  A    between atoms: C7_8  and  C9_10
REMARK                            x       y       z     vdW  Elec       q    Type
REMARK                         _______ _______ _______ _____ _____    ______ ____
ROOT
ATOM      1  C1  UNL     1       9.491  67.155  79.767  0.00  0.00    +0.000 C 
ATOM      2  C2  UNL     1       8.897  68.395  79.145  0.00  0.00    +0.000 C 
ATOM      3  C3  UNL     1       8.776  69.479  79.928  0.00  0.00    +0.000 C 
ATOM      4  C4  UNL     1       8.211  70.728  79.415  0.00  0.00    +0.000 C 
ATOM      5  O1  UNL     1       8.109  71.733  80.168  0.00  0.00    +0.000 OA
ATOM      6  C5  UNL     1       7.768  70.805  78.026  0.00  0.00    +0.000 C 
ATOM      7  C6  UNL     1       7.874  69.746  77.224  0.00  0.00    +0.000 C 
ATOM      8  C7  UNL     1       8.449  68.406  77.671  0.00  0.00    +0.000 C 
ATOM      9  C8  UNL     1       7.353  67.344  77.457  0.00  0.00    +0.000 C 
ATOM     10  C9  UNL     1       9.656  68.100  76.763  0.00  0.00    +0.000 C 
ENDROOT
TORSDOF 0
ENDMDL
MODEL 8
REMARK VINA RESULT:      -4.3      2.543      3.726
REMARK  Name = .\Carvone.pdb
REMARK  3 active torsions:
REMARK  status: ('A' for Active; 'I' for Inactive)
REMARK    1  A    between atoms: C1_1  and  C2_2
REMARK    2  A    between atoms: C7_8  and  C8_9
REMARK    3  A    between atoms: C7_8  and  C9_10
REMARK                            x       y       z     vdW  Elec       q    Type
REMARK                         _______ _______ _______ _____ _____    ______ ____
ROOT
ATOM      1  C1  UNL     1       9.916  70.126  78.762  0.00  0.00    +0.000 C 
ATOM      2  C2  UNL     1       8.946  69.037  78.372  0.00  0.00    +0.000 C 
ATOM      3  C3  UNL     1       8.247  69.212  77.240  0.00  0.00    +0.000 C 
ATOM      4  C4  UNL     1       7.283  68.211  76.779  0.00  0.00    +0.000 C 
ATOM      5  O1  UNL     1       6.638  68.397  75.713  0.00  0.00    +0.000 OA
ATOM      6  C5  UNL     1       7.072  66.997  77.561  0.00  0.00    +0.000 C 
ATOM      7  C6  UNL     1       7.751  66.793  78.690  0.00  0.00    +0.000 C 
ATOM      8  C7  UNL     1       8.773  67.779  79.245  0.00  0.00    +0.000 C 
ATOM      9  C8  UNL     1       8.296  68.190  80.652  0.00  0.00    +0.000 C 
ATOM     10  C9  UNL     1      10.119  67.035  79.348  0.00  0.00    +0.000 C 
ENDROOT
TORSDOF 0
ENDMDL
MODEL 9
REMARK VINA RESULT:      -4.2      1.846      2.464
REMARK  Name = .\Carvone.pdb
REMARK  3 active torsions:
REMARK  status: ('A' for Active; 'I' for Inactive)
REMARK    1  A    between atoms: C1_1  and  C2_2
REMARK    2  A    between atoms: C7_8  and  C8_9
REMARK    3  A    between atoms: C7_8  and  C9_10
REMARK                            x       y       z     vdW  Elec       q    Type
REMARK                         _______ _______ _______ _____ _____    ______ ____
ROOT
ATOM      1  C1  UNL     1       6.983  67.181  78.994  0.00  0.00    +0.000 C 
ATOM      2  C2  UNL     1       7.949  68.340  79.003  0.00  0.00    +0.000 C 
ATOM      3  C3  UNL     1       7.517  69.498  79.528  0.00  0.00    +0.000 C 
ATOM      4  C4  UNL     1       8.381  70.678  79.581  0.00  0.00    +0.000 C 
ATOM      5  O1  UNL     1       7.954  71.753  80.079  0.00  0.00    +0.000 OA
ATOM      6  C5  UNL     1       9.741  70.603  79.055  0.00  0.00    +0.000 C 
ATOM      7  C6  UNL     1      10.200  69.467  78.528  0.00  0.00    +0.000 C 
ATOM      8  C7  UNL     1       9.372  68.191  78.431  0.00  0.00    +0.000 C 
ATOM      9  C8  UNL     1       9.290  67.811  76.939  0.00  0.00    +0.000 C 
ATOM     10  C9  UNL     1      10.127  67.095  79.207  0.00  0.00    +0.000 C 
ENDROOT
TORSDOF 0
ENDMDL
