MODEL 1
REMARK VINA RESULT:      -4.2      0.000      0.000
REMARK  Name = .\Carvone.pdb
REMARK  3 active torsions:
REMARK  status: ('A' for Active; 'I' for Inactive)
REMARK    1  A    between atoms: C1_1  and  C2_2
REMARK    2  A    between atoms: C7_8  and  C8_9
REMARK    3  A    between atoms: C7_8  and  C9_10
REMARK                            x       y       z     vdW  Elec       q    Type
REMARK                         _______ _______ _______ _____ _____    ______ ____
ROOT
ATOM      1  C1  UNL     1     -14.976  71.084 -12.952  0.00  0.00    +0.000 C 
ATOM      2  C2  UNL     1     -14.100  70.219 -13.825  0.00  0.00    +0.000 C 
ATOM      3  C3  UNL     1     -13.059  70.812 -14.432  0.00  0.00    +0.000 C 
ATOM      4  C4  UNL     1     -12.153  70.056 -15.298  0.00  0.00    +0.000 C 
ATOM      5  O1  UNL     1     -11.183  70.633 -15.857  0.00  0.00    +0.000 OA
ATOM      6  C5  UNL     1     -12.379  68.629 -15.512  0.00  0.00    +0.000 C 
ATOM      7  C6  UNL     1     -13.403  68.012 -14.923  0.00  0.00    +0.000 C 
ATOM      8  C7  UNL     1     -14.396  68.718 -14.006  0.00  0.00    +0.000 C 
ATOM      9  C8  UNL     1     -15.797  68.540 -14.626  0.00  0.00    +0.000 C 
ATOM     10  C9  UNL     1     -14.338  68.012 -12.638  0.00  0.00    +0.000 C 
ENDROOT
TORSDOF 0
ENDMDL
MODEL 2
REMARK VINA RESULT:      -4.2      0.651      2.540
REMARK  Name = .\Carvone.pdb
REMARK  3 active torsions:
REMARK  status: ('A' for Active; 'I' for Inactive)
REMARK    1  A    between atoms: C1_1  and  C2_2
REMARK    2  A    between atoms: C7_8  and  C8_9
REMARK    3  A    between atoms: C7_8  and  C9_10
REMARK                            x       y       z     vdW  Elec       q    Type
REMARK                         _______ _______ _______ _____ _____    ______ ____
ROOT
ATOM      1  C1  UNL     1     -13.820  66.548 -14.558  0.00  0.00    +0.000 C 
ATOM      2  C2  UNL     1     -13.672  68.050 -14.514  0.00  0.00    +0.000 C 
ATOM      3  C3  UNL     1     -12.672  68.591 -15.227  0.00  0.00    +0.000 C 
ATOM      4  C4  UNL     1     -12.450  70.038 -15.248  0.00  0.00    +0.000 C 
ATOM      5  O1  UNL     1     -11.505  70.523 -15.924  0.00  0.00    +0.000 OA
ATOM      6  C5  UNL     1     -13.328  70.915 -14.480  0.00  0.00    +0.000 C 
ATOM      7  C6  UNL     1     -14.330  70.409 -13.762  0.00  0.00    +0.000 C 
ATOM      8  C7  UNL     1     -14.637  68.917 -13.682  0.00  0.00    +0.000 C 
ATOM      9  C8  UNL     1     -14.545  68.510 -12.198  0.00  0.00    +0.000 C 
ATOM     10  C9  UNL     1     -16.078  68.718 -14.189  0.00  0.00    +0.000 C 
ENDROOT
TORSDOF 0
ENDMDL
MODEL 3
REMARK VINA RESULT:      -3.5      1.636      3.131
REMARK  Name = .\Carvone.pdb
REMARK  3 active torsions:
REMARK  status: ('A' for Active; 'I' for Inactive)
REMARK    1  A    between atoms: C1_1  and  C2_2
REMARK    2  A    between atoms: C7_8  and  C8_9
REMARK    3  A    between atoms: C7_8  and  C9_10
REMARK                            x       y       z     vdW  Elec       q    Type
REMARK                         _______ _______ _______ _____ _____    ______ ____
ROOT
ATOM      1  C1  UNL     1     -12.695  68.838 -15.333  0.00  0.00    +0.000 C 
ATOM      2  C2  UNL     1     -13.669  69.549 -14.426  0.00  0.00    +0.000 C 
ATOM      3  C3  UNL     1     -13.471  70.860 -14.216  0.00  0.00    +0.000 C 
ATOM      4  C4  UNL     1     -14.362  71.635 -13.352  0.00  0.00    +0.000 C 
ATOM      5  O1  UNL     1     -14.157  72.864 -13.170  0.00  0.00    +0.000 OA
ATOM      6  C5  UNL     1     -15.492  70.977 -12.701  0.00  0.00    +0.000 C 
ATOM      7  C6  UNL     1     -15.716  69.676 -12.890  0.00  0.00    +0.000 C 
ATOM      8  C7  UNL     1     -14.842  68.791 -13.771  0.00  0.00    +0.000 C 
ATOM      9  C8  UNL     1     -14.291  67.660 -12.881  0.00  0.00    +0.000 C 
ATOM     10  C9  UNL     1     -15.748  68.198 -14.868  0.00  0.00    +0.000 C 
ENDROOT
TORSDOF 0
ENDMDL
MODEL 4
REMARK VINA RESULT:      -3.3      2.058      2.925
REMARK  Name = .\Carvone.pdb
REMARK  3 active torsions:
REMARK  status: ('A' for Active; 'I' for Inactive)
REMARK    1  A    between atoms: C1_1  and  C2_2
REMARK    2  A    between atoms: C7_8  and  C8_9
REMARK    3  A    between atoms: C7_8  and  C9_10
REMARK                            x       y       z     vdW  Elec       q    Type
REMARK                         _______ _______ _______ _____ _____    ______ ____
ROOT
ATOM      1  C1  UNL     1     -17.550  68.292 -14.635  0.00  0.00    +0.000 C 
ATOM      2  C2  UNL     1     -16.127  67.791 -14.567  0.00  0.00    +0.000 C 
ATOM      3  C3  UNL     1     -15.152  68.667 -14.858  0.00  0.00    +0.000 C 
ATOM      4  C4  UNL     1     -13.742  68.274 -14.820  0.00  0.00    +0.000 C 
ATOM      5  O1  UNL     1     -12.844  69.112 -15.096  0.00  0.00    +0.000 OA
ATOM      6  C5  UNL     1     -13.382  66.905 -14.461  0.00  0.00    +0.000 C 
ATOM      7  C6  UNL     1     -14.328  66.013 -14.166  0.00  0.00    +0.000 C 
ATOM      8  C7  UNL     1     -15.818  66.332 -14.180  0.00  0.00    +0.000 C 
ATOM      9  C8  UNL     1     -16.481  65.378 -15.194  0.00  0.00    +0.000 C 
ATOM     10  C9  UNL     1     -16.360  66.048 -12.766  0.00  0.00    +0.000 C 
ENDROOT
TORSDOF 0
ENDMDL
MODEL 5
REMARK VINA RESULT:      -3.3      1.491      1.894
REMARK  Name = .\Carvone.pdb
REMARK  3 active torsions:
REMARK  status: ('A' for Active; 'I' for Inactive)
REMARK    1  A    between atoms: C1_1  and  C2_2
REMARK    2  A    between atoms: C7_8  and  C8_9
REMARK    3  A    between atoms: C7_8  and  C9_10
REMARK                            x       y       z     vdW  Elec       q    Type
REMARK                         _______ _______ _______ _____ _____    ______ ____
ROOT
ATOM      1  C1  UNL     1     -14.345  72.051 -13.351  0.00  0.00    +0.000 C 
ATOM      2  C2  UNL     1     -14.195  70.562 -13.548  0.00  0.00    +0.000 C 
ATOM      3  C3  UNL     1     -13.368  70.150 -14.522  0.00  0.00    +0.000 C 
ATOM      4  C4  UNL     1     -13.157  68.726 -14.788  0.00  0.00    +0.000 C 
ATOM      5  O1  UNL     1     -12.376  68.363 -15.707  0.00  0.00    +0.000 OA
ATOM      6  C5  UNL     1     -13.857  67.728 -13.984  0.00  0.00    +0.000 C 
ATOM      7  C6  UNL     1     -14.684  68.105 -13.009  0.00  0.00    +0.000 C 
ATOM      8  C7  UNL     1     -14.964  69.563 -12.661  0.00  0.00    +0.000 C 
ATOM      9  C8  UNL     1     -16.480  69.790 -12.825  0.00  0.00    +0.000 C 
ATOM     10  C9  UNL     1     -14.563  69.767 -11.187  0.00  0.00    +0.000 C 
ENDROOT
TORSDOF 0
ENDMDL
MODEL 6
REMARK VINA RESULT:      -3.2      1.850      2.767
REMARK  Name = .\Carvone.pdb
REMARK  3 active torsions:
REMARK  status: ('A' for Active; 'I' for Inactive)
REMARK    1  A    between atoms: C1_1  and  C2_2
REMARK    2  A    between atoms: C7_8  and  C8_9
REMARK    3  A    between atoms: C7_8  and  C9_10
REMARK                            x       y       z     vdW  Elec       q    Type
REMARK                         _______ _______ _______ _____ _____    ______ ____
ROOT
ATOM      1  C1  UNL     1     -15.581  67.041 -11.603  0.00  0.00    +0.000 C 
ATOM      2  C2  UNL     1     -14.965  67.946 -12.642  0.00  0.00    +0.000 C 
ATOM      3  C3  UNL     1     -14.828  69.244 -12.324  0.00  0.00    +0.000 C 
ATOM      4  C4  UNL     1     -14.242  70.199 -13.266  0.00  0.00    +0.000 C 
ATOM      5  O1  UNL     1     -14.124  71.411 -12.946  0.00  0.00    +0.000 OA
ATOM      6  C5  UNL     1     -13.796  69.740 -14.578  0.00  0.00    +0.000 C 
ATOM      7  C6  UNL     1     -13.918  68.458 -14.923  0.00  0.00    +0.000 C 
ATOM      8  C7  UNL     1     -14.515  67.394 -14.009  0.00  0.00    +0.000 C 
ATOM      9  C8  UNL     1     -15.727  66.787 -14.743  0.00  0.00    +0.000 C 
ATOM     10  C9  UNL     1     -13.437  66.313 -13.798  0.00  0.00    +0.000 C 
ENDROOT
TORSDOF 0
ENDMDL
MODEL 7
REMARK VINA RESULT:      -3.2      2.815      4.542
REMARK  Name = .\Carvone.pdb
REMARK  3 active torsions:
REMARK  status: ('A' for Active; 'I' for Inactive)
REMARK    1  A    between atoms: C1_1  and  C2_2
REMARK    2  A    between atoms: C7_8  and  C8_9
REMARK    3  A    between atoms: C7_8  and  C9_10
REMARK                            x       y       z     vdW  Elec       q    Type
REMARK                         _______ _______ _______ _____ _____    ______ ____
ROOT
ATOM      1  C1  UNL     1     -14.903  72.016 -12.926  0.00  0.00    +0.000 C 
ATOM      2  C2  UNL     1     -13.964  72.571 -13.969  0.00  0.00    +0.000 C 
ATOM      3  C3  UNL     1     -13.326  71.689 -14.755  0.00  0.00    +0.000 C 
ATOM      4  C4  UNL     1     -12.396  72.132 -15.795  0.00  0.00    +0.000 C 
ATOM      5  O1  UNL     1     -11.809  71.287 -16.520  0.00  0.00    +0.000 OA
ATOM      6  C5  UNL     1     -12.153  73.559 -15.988  0.00  0.00    +0.000 C 
ATOM      7  C6  UNL     1     -12.772  74.459 -15.225  0.00  0.00    +0.000 C 
ATOM      8  C7  UNL     1     -13.755  74.091 -14.119  0.00  0.00    +0.000 C 
ATOM      9  C8  UNL     1     -13.198  74.666 -12.801  0.00  0.00    +0.000 C 
ATOM     10  C9  UNL     1     -15.098  74.766 -14.456  0.00  0.00    +0.000 C 
ENDROOT
TORSDOF 0
ENDMDL
MODEL 8
REMARK VINA RESULT:      -3.2      3.372      4.861
REMARK  Name = .\Carvone.pdb
REMARK  3 active torsions:
REMARK  status: ('A' for Active; 'I' for Inactive)
REMARK    1  A    between atoms: C1_1  and  C2_2
REMARK    2  A    between atoms: C7_8  and  C8_9
REMARK    3  A    between atoms: C7_8  and  C9_10
REMARK                            x       y       z     vdW  Elec       q    Type
REMARK                         _______ _______ _______ _____ _____    ______ ____
ROOT
ATOM      1  C1  UNL     1     -12.195  76.000 -15.500  0.00  0.00    +0.000 C 
ATOM      2  C2  UNL     1     -12.636  74.586 -15.212  0.00  0.00    +0.000 C 
ATOM      3  C3  UNL     1     -12.070  73.605 -15.932  0.00  0.00    +0.000 C 
ATOM      4  C4  UNL     1     -12.433  72.202 -15.725  0.00  0.00    +0.000 C 
ATOM      5  O1  UNL     1     -11.888  71.299 -16.412  0.00  0.00    +0.000 OA
ATOM      6  C5  UNL     1     -13.431  71.855 -14.717  0.00  0.00    +0.000 C 
ATOM      7  C6  UNL     1     -14.011  72.806 -13.985  0.00  0.00    +0.000 C 
ATOM      8  C7  UNL     1     -13.695  74.290 -14.132  0.00  0.00    +0.000 C 
ATOM      9  C8  UNL     1     -15.012  75.005 -14.493  0.00  0.00    +0.000 C 
ATOM     10  C9  UNL     1     -13.189  74.789 -12.764  0.00  0.00    +0.000 C 
ENDROOT
TORSDOF 0
ENDMDL
MODEL 9
REMARK VINA RESULT:      -3.1      3.017      4.193
REMARK  Name = .\Carvone.pdb
REMARK  3 active torsions:
REMARK  status: ('A' for Active; 'I' for Inactive)
REMARK    1  A    between atoms: C1_1  and  C2_2
REMARK    2  A    between atoms: C7_8  and  C8_9
REMARK    3  A    between atoms: C7_8  and  C9_10
REMARK                            x       y       z     vdW  Elec       q    Type
REMARK                         _______ _______ _______ _____ _____    ______ ____
ROOT
ATOM      1  C1  UNL     1     -17.334  68.963 -13.398  0.00  0.00    +0.000 C 
ATOM      2  C2  UNL     1     -16.302  67.905 -13.705  0.00  0.00    +0.000 C 
ATOM      3  C3  UNL     1     -16.737  66.761 -14.255  0.00  0.00    +0.000 C 
ATOM      4  C4  UNL     1     -15.811  65.678 -14.589  0.00  0.00    +0.000 C 
ATOM      5  O1  UNL     1     -16.242  64.613 -15.105  0.00  0.00    +0.000 OA
ATOM      6  C5  UNL     1     -14.385  65.837 -14.319  0.00  0.00    +0.000 C 
ATOM      7  C6  UNL     1     -13.921  66.961 -13.774  0.00  0.00    +0.000 C 
ATOM      8  C7  UNL     1     -14.810  68.140 -13.395  0.00  0.00    +0.000 C 
ATOM      9  C8  UNL     1     -14.630  68.382 -11.883  0.00  0.00    +0.000 C 
ATOM     10  C9  UNL     1     -14.307  69.366 -14.182  0.00  0.00    +0.000 C 
ENDROOT
TORSDOF 0
ENDMDL
