MODEL 1
REMARK VINA RESULT:      -4.0      0.000      0.000
REMARK  Name = .\Carvone.pdb
REMARK  3 active torsions:
REMARK  status: ('A' for Active; 'I' for Inactive)
REMARK    1  A    between atoms: C1_1  and  C2_2
REMARK    2  A    between atoms: C7_8  and  C8_9
REMARK    3  A    between atoms: C7_8  and  C9_10
REMARK                            x       y       z     vdW  Elec       q    Type
REMARK                         _______ _______ _______ _____ _____    ______ ____
ROOT
ATOM      1  C1  UNL     1     -12.672  75.414 -35.523  0.00  0.00    +0.000 C 
ATOM      2  C2  UNL     1     -11.549  74.409 -35.449  0.00  0.00    +0.000 C 
ATOM      3  C3  UNL     1     -10.294  74.882 -35.510  0.00  0.00    +0.000 C 
ATOM      4  C4  UNL     1      -9.140  73.984 -35.446  0.00  0.00    +0.000 C 
ATOM      5  O1  UNL     1      -7.971  74.450 -35.505  0.00  0.00    +0.000 OA
ATOM      6  C5  UNL     1      -9.349  72.545 -35.312  0.00  0.00    +0.000 C 
ATOM      7  C6  UNL     1     -10.582  72.045 -35.248  0.00  0.00    +0.000 C 
ATOM      8  C7  UNL     1     -11.842  72.902 -35.307  0.00  0.00    +0.000 C 
ATOM      9  C8  UNL     1     -12.666  72.422 -36.518  0.00  0.00    +0.000 C 
ATOM     10  C9  UNL     1     -12.629  72.650 -34.007  0.00  0.00    +0.000 C 
ENDROOT
TORSDOF 0
ENDMDL
MODEL 2
REMARK VINA RESULT:      -3.6      1.083      2.690
REMARK  Name = .\Carvone.pdb
REMARK  3 active torsions:
REMARK  status: ('A' for Active; 'I' for Inactive)
REMARK    1  A    between atoms: C1_1  and  C2_2
REMARK    2  A    between atoms: C7_8  and  C8_9
REMARK    3  A    between atoms: C7_8  and  C9_10
REMARK                            x       y       z     vdW  Elec       q    Type
REMARK                         _______ _______ _______ _____ _____    ______ ____
ROOT
ATOM      1  C1  UNL     1     -10.244  71.557 -35.526  0.00  0.00    +0.000 C 
ATOM      2  C2  UNL     1     -10.093  73.058 -35.563  0.00  0.00    +0.000 C 
ATOM      3  C3  UNL     1      -8.852  73.550 -35.703  0.00  0.00    +0.000 C 
ATOM      4  C4  UNL     1      -8.606  74.992 -35.749  0.00  0.00    +0.000 C 
ATOM      5  O1  UNL     1      -7.433  75.430 -35.882  0.00  0.00    +0.000 OA
ATOM      6  C5  UNL     1      -9.727  75.921 -35.641  0.00  0.00    +0.000 C 
ATOM      7  C6  UNL     1     -10.972  75.464 -35.502  0.00  0.00    +0.000 C 
ATOM      8  C7  UNL     1     -11.322  73.982 -35.443  0.00  0.00    +0.000 C 
ATOM      9  C8  UNL     1     -12.026  73.730 -34.095  0.00  0.00    +0.000 C 
ATOM     10  C9  UNL     1     -12.296  73.695 -36.602  0.00  0.00    +0.000 C 
ENDROOT
TORSDOF 0
ENDMDL
MODEL 3
REMARK VINA RESULT:      -3.5      1.246      2.728
REMARK  Name = .\Carvone.pdb
REMARK  3 active torsions:
REMARK  status: ('A' for Active; 'I' for Inactive)
REMARK    1  A    between atoms: C1_1  and  C2_2
REMARK    2  A    between atoms: C7_8  and  C8_9
REMARK    3  A    between atoms: C7_8  and  C9_10
REMARK                            x       y       z     vdW  Elec       q    Type
REMARK                         _______ _______ _______ _____ _____    ______ ____
ROOT
ATOM      1  C1  UNL     1     -12.640  72.367 -36.173  0.00  0.00    +0.000 C 
ATOM      2  C2  UNL     1     -11.368  73.170 -36.049  0.00  0.00    +0.000 C 
ATOM      3  C3  UNL     1     -10.309  72.564 -35.491  0.00  0.00    +0.000 C 
ATOM      4  C4  UNL     1      -9.032  73.261 -35.328  0.00  0.00    +0.000 C 
ATOM      5  O1  UNL     1      -8.051  72.672 -34.802  0.00  0.00    +0.000 OA
ATOM      6  C5  UNL     1      -8.901  74.644 -35.778  0.00  0.00    +0.000 C 
ATOM      7  C6  UNL     1      -9.935  75.274 -36.336  0.00  0.00    +0.000 C 
ATOM      8  C7  UNL     1     -11.300  74.628 -36.546  0.00  0.00    +0.000 C 
ATOM      9  C8  UNL     1     -12.332  75.481 -35.783  0.00  0.00    +0.000 C 
ATOM     10  C9  UNL     1     -11.600  74.672 -38.057  0.00  0.00    +0.000 C 
ENDROOT
TORSDOF 0
ENDMDL
MODEL 4
REMARK VINA RESULT:      -3.4      2.075      3.804
REMARK  Name = .\Carvone.pdb
REMARK  3 active torsions:
REMARK  status: ('A' for Active; 'I' for Inactive)
REMARK    1  A    between atoms: C1_1  and  C2_2
REMARK    2  A    between atoms: C7_8  and  C8_9
REMARK    3  A    between atoms: C7_8  and  C9_10
REMARK                            x       y       z     vdW  Elec       q    Type
REMARK                         _______ _______ _______ _____ _____    ______ ____
ROOT
ATOM      1  C1  UNL     1      -8.437  73.089 -35.404  0.00  0.00    +0.000 C 
ATOM      2  C2  UNL     1      -9.891  73.486 -35.463  0.00  0.00    +0.000 C 
ATOM      3  C3  UNL     1     -10.795  72.578 -35.060  0.00  0.00    +0.000 C 
ATOM      4  C4  UNL     1     -12.229  72.872 -35.080  0.00  0.00    +0.000 C 
ATOM      5  O1  UNL     1     -13.058  72.005 -34.697  0.00  0.00    +0.000 OA
ATOM      6  C5  UNL     1     -12.694  74.175 -35.548  0.00  0.00    +0.000 C 
ATOM      7  C6  UNL     1     -11.822  75.098 -35.954  0.00  0.00    +0.000 C 
ATOM      8  C7  UNL     1     -10.313  74.881 -35.967  0.00  0.00    +0.000 C 
ATOM      9  C8  UNL     1      -9.836  75.068 -37.421  0.00  0.00    +0.000 C 
ATOM     10  C9  UNL     1      -9.686  75.964 -35.069  0.00  0.00    +0.000 C 
ENDROOT
TORSDOF 0
ENDMDL
MODEL 5
REMARK VINA RESULT:      -3.4      2.621      3.825
REMARK  Name = .\Carvone.pdb
REMARK  3 active torsions:
REMARK  status: ('A' for Active; 'I' for Inactive)
REMARK    1  A    between atoms: C1_1  and  C2_2
REMARK    2  A    between atoms: C7_8  and  C8_9
REMARK    3  A    between atoms: C7_8  and  C9_10
REMARK                            x       y       z     vdW  Elec       q    Type
REMARK                         _______ _______ _______ _____ _____    ______ ____
ROOT
ATOM      1  C1  UNL     1     -10.924  74.140 -37.871  0.00  0.00    +0.000 C 
ATOM      2  C2  UNL     1     -11.695  73.462 -36.764  0.00  0.00    +0.000 C 
ATOM      3  C3  UNL     1     -12.887  72.931 -37.080  0.00  0.00    +0.000 C 
ATOM      4  C4  UNL     1     -13.707  72.254 -36.074  0.00  0.00    +0.000 C 
ATOM      5  O1  UNL     1     -14.821  71.762 -36.393  0.00  0.00    +0.000 OA
ATOM      6  C5  UNL     1     -13.227  72.151 -34.699  0.00  0.00    +0.000 C 
ATOM      7  C6  UNL     1     -12.047  72.668 -34.354  0.00  0.00    +0.000 C 
ATOM      8  C7  UNL     1     -11.128  73.390 -35.333  0.00  0.00    +0.000 C 
ATOM      9  C8  UNL     1     -10.912  74.817 -34.791  0.00  0.00    +0.000 C 
ATOM     10  C9  UNL     1      -9.787  72.629 -35.348  0.00  0.00    +0.000 C 
ENDROOT
TORSDOF 0
ENDMDL
MODEL 6
REMARK VINA RESULT:      -3.4      2.157      3.314
REMARK  Name = .\Carvone.pdb
REMARK  3 active torsions:
REMARK  status: ('A' for Active; 'I' for Inactive)
REMARK    1  A    between atoms: C1_1  and  C2_2
REMARK    2  A    between atoms: C7_8  and  C8_9
REMARK    3  A    between atoms: C7_8  and  C9_10
REMARK                            x       y       z     vdW  Elec       q    Type
REMARK                         _______ _______ _______ _____ _____    ______ ____
ROOT
ATOM      1  C1  UNL     1     -10.146  76.185 -34.854  0.00  0.00    +0.000 C 
ATOM      2  C2  UNL     1     -10.627  74.763 -35.006  0.00  0.00    +0.000 C 
ATOM      3  C3  UNL     1     -11.664  74.378 -34.246  0.00  0.00    +0.000 C 
ATOM      4  C4  UNL     1     -12.201  73.019 -34.323  0.00  0.00    +0.000 C 
ATOM      5  O1  UNL     1     -13.175  72.681 -33.600  0.00  0.00    +0.000 OA
ATOM      6  C5  UNL     1     -11.601  72.056 -35.242  0.00  0.00    +0.000 C 
ATOM      7  C6  UNL     1     -10.570  72.407 -36.010  0.00  0.00    +0.000 C 
ATOM      8  C7  UNL     1      -9.947  73.798 -35.997  0.00  0.00    +0.000 C 
ATOM      9  C8  UNL     1      -8.462  73.631 -35.617  0.00  0.00    +0.000 C 
ATOM     10  C9  UNL     1     -10.058  74.364 -37.426  0.00  0.00    +0.000 C 
ENDROOT
TORSDOF 0
ENDMDL
MODEL 7
REMARK VINA RESULT:      -3.4      2.720      4.094
REMARK  Name = .\Carvone.pdb
REMARK  3 active torsions:
REMARK  status: ('A' for Active; 'I' for Inactive)
REMARK    1  A    between atoms: C1_1  and  C2_2
REMARK    2  A    between atoms: C7_8  and  C8_9
REMARK    3  A    between atoms: C7_8  and  C9_10
REMARK                            x       y       z     vdW  Elec       q    Type
REMARK                         _______ _______ _______ _____ _____    ______ ____
ROOT
ATOM      1  C1  UNL     1     -12.732  72.693 -32.967  0.00  0.00    +0.000 C 
ATOM      2  C2  UNL     1     -12.835  72.772 -34.470  0.00  0.00    +0.000 C 
ATOM      3  C3  UNL     1     -14.013  72.443 -35.025  0.00  0.00    +0.000 C 
ATOM      4  C4  UNL     1     -14.210  72.488 -36.474  0.00  0.00    +0.000 C 
ATOM      5  O1  UNL     1     -15.323  72.175 -36.972  0.00  0.00    +0.000 OA
ATOM      6  C5  UNL     1     -13.109  72.899 -37.341  0.00  0.00    +0.000 C 
ATOM      7  C6  UNL     1     -11.928  73.233 -36.821  0.00  0.00    +0.000 C 
ATOM      8  C7  UNL     1     -11.632  73.215 -35.326  0.00  0.00    +0.000 C 
ATOM      9  C8  UNL     1     -10.457  72.242 -35.103  0.00  0.00    +0.000 C 
ATOM     10  C9  UNL     1     -11.211  74.642 -34.925  0.00  0.00    +0.000 C 
ENDROOT
TORSDOF 0
ENDMDL
MODEL 8
REMARK VINA RESULT:      -3.4      2.124      3.632
REMARK  Name = .\Carvone.pdb
REMARK  3 active torsions:
REMARK  status: ('A' for Active; 'I' for Inactive)
REMARK    1  A    between atoms: C1_1  and  C2_2
REMARK    2  A    between atoms: C7_8  and  C8_9
REMARK    3  A    between atoms: C7_8  and  C9_10
REMARK                            x       y       z     vdW  Elec       q    Type
REMARK                         _______ _______ _______ _____ _____    ______ ____
ROOT
ATOM      1  C1  UNL     1     -11.073  75.797 -37.761  0.00  0.00    +0.000 C 
ATOM      2  C2  UNL     1     -10.349  74.765 -36.932  0.00  0.00    +0.000 C 
ATOM      3  C3  UNL     1     -11.072  73.741 -36.453  0.00  0.00    +0.000 C 
ATOM      4  C4  UNL     1     -10.458  72.691 -35.639  0.00  0.00    +0.000 C 
ATOM      5  O1  UNL     1     -11.157  71.740 -35.201  0.00  0.00    +0.000 OA
ATOM      6  C5  UNL     1      -9.031  72.753 -35.336  0.00  0.00    +0.000 C 
ATOM      7  C6  UNL     1      -8.285  73.757 -35.797  0.00  0.00    +0.000 C 
ATOM      8  C7  UNL     1      -8.838  74.892 -36.651  0.00  0.00    +0.000 C 
ATOM      9  C8  UNL     1      -8.563  76.208 -35.898  0.00  0.00    +0.000 C 
ATOM     10  C9  UNL     1      -8.064  74.882 -37.984  0.00  0.00    +0.000 C 
ENDROOT
TORSDOF 0
ENDMDL
MODEL 9
REMARK VINA RESULT:      -3.3      1.207      2.823
REMARK  Name = .\Carvone.pdb
REMARK  3 active torsions:
REMARK  status: ('A' for Active; 'I' for Inactive)
REMARK    1  A    between atoms: C1_1  and  C2_2
REMARK    2  A    between atoms: C7_8  and  C8_9
REMARK    3  A    between atoms: C7_8  and  C9_10
REMARK                            x       y       z     vdW  Elec       q    Type
REMARK                         _______ _______ _______ _____ _____    ______ ____
ROOT
ATOM      1  C1  UNL     1      -9.625  72.151 -35.211  0.00  0.00    +0.000 C 
ATOM      2  C2  UNL     1     -10.422  73.428 -35.327  0.00  0.00    +0.000 C 
ATOM      3  C3  UNL     1      -9.735  74.572 -35.474  0.00  0.00    +0.000 C 
ATOM      4  C4  UNL     1     -10.420  75.860 -35.595  0.00  0.00    +0.000 C 
ATOM      5  O1  UNL     1      -9.755  76.920 -35.733  0.00  0.00    +0.000 OA
ATOM      6  C5  UNL     1     -11.879  75.910 -35.555  0.00  0.00    +0.000 C 
ATOM      7  C6  UNL     1     -12.589  74.791 -35.410  0.00  0.00    +0.000 C 
ATOM      8  C7  UNL     1     -11.963  73.408 -35.277  0.00  0.00    +0.000 C 
ATOM      9  C8  UNL     1     -12.426  72.823 -33.928  0.00  0.00    +0.000 C 
ATOM     10  C9  UNL     1     -12.505  72.546 -36.434  0.00  0.00    +0.000 C 
ENDROOT
TORSDOF 0
ENDMDL
