MODEL 1
REMARK VINA RESULT:      -4.7      0.000      0.000
REMARK  Name = .\Carvacrol.pdb
REMARK  5 active torsions:
REMARK  status: ('A' for Active; 'I' for Inactive)
REMARK    1  A    between atoms: C1_1  and  C2_2
REMARK    2  A    between atoms: C2_2  and  C3_3
REMARK    3  A    between atoms: C2_2  and  C4_4
REMARK    4  A    between atoms: C6_6  and  O1_11
REMARK    5  A    between atoms: C7_7  and  C10_10
REMARK                            x       y       z     vdW  Elec       q    Type
REMARK                         _______ _______ _______ _____ _____    ______ ____
ROOT
ATOM      1  C4  UNL     1       1.714  93.934 137.373  0.00  0.00    +0.000 A 
ATOM      2  C5  UNL     1       2.411  95.097 137.005  0.00  0.00    +0.000 A 
ATOM      3  C6  UNL     1       2.031  95.832 135.872  0.00  0.00    +0.000 A 
ATOM      4  C7  UNL     1       0.943  95.406 135.092  0.00  0.00    +0.000 A 
ATOM      5  C8  UNL     1       0.244  94.245 135.457  0.00  0.00    +0.000 A 
ATOM      6  C9  UNL     1       0.626  93.516 136.586  0.00  0.00    +0.000 A 
ATOM      7  C10 UNL     1       0.530  96.188 133.877  0.00  0.00    +0.000 C 
ENDROOT
BRANCH   1   9
ATOM      8  C1  UNL     1       2.919  94.037 139.579  0.00  0.00    +0.000 C 
ATOM      9  C2  UNL     1       2.138  93.151 138.601  0.00  0.00    +0.000 C 
ATOM     10  C3  UNL     1       0.931  92.501 139.287  0.00  0.00    +0.000 C 
ENDBRANCH   1   9
BRANCH   3  11
ATOM     11  O1  UNL     1       2.734  96.984 135.519  0.00  0.00    +0.000 OA
ATOM     12  H14 UNL     1       2.454  97.558 134.732  0.00  0.00    +0.000 HD
ENDBRANCH   3  11
TORSDOF 2
ENDMDL
MODEL 2
REMARK VINA RESULT:      -4.3      1.284      4.392
REMARK  Name = .\Carvacrol.pdb
REMARK  5 active torsions:
REMARK  status: ('A' for Active; 'I' for Inactive)
REMARK    1  A    between atoms: C1_1  and  C2_2
REMARK    2  A    between atoms: C2_2  and  C3_3
REMARK    3  A    between atoms: C2_2  and  C4_4
REMARK    4  A    between atoms: C6_6  and  O1_11
REMARK    5  A    between atoms: C7_7  and  C10_10
REMARK                            x       y       z     vdW  Elec       q    Type
REMARK                         _______ _______ _______ _____ _____    ______ ____
ROOT
ATOM      1  C4  UNL     1       1.077  95.815 135.130  0.00  0.00    +0.000 A 
ATOM      2  C5  UNL     1       2.032  96.131 136.111  0.00  0.00    +0.000 A 
ATOM      3  C6  UNL     1       2.288  95.249 137.172  0.00  0.00    +0.000 A 
ATOM      4  C7  UNL     1       1.585  94.035 137.261  0.00  0.00    +0.000 A 
ATOM      5  C8  UNL     1       0.630  93.718 136.283  0.00  0.00    +0.000 A 
ATOM      6  C9  UNL     1       0.378  94.598 135.228  0.00  0.00    +0.000 A 
ATOM      7  C10 UNL     1       1.854  93.087 138.394  0.00  0.00    +0.000 C 
ENDROOT
BRANCH   1   9
ATOM      8  C1  UNL     1      -0.324  97.749 134.338  0.00  0.00    +0.000 C 
ATOM      9  C2  UNL     1       0.812  96.780 133.990  0.00  0.00    +0.000 C 
ATOM     10  C3  UNL     1       2.086  97.540 133.601  0.00  0.00    +0.000 C 
ENDBRANCH   1   9
BRANCH   3  11
ATOM     11  O1  UNL     1       3.239  95.577 138.139  0.00  0.00    +0.000 OA
ATOM     12  H14 UNL     1       3.446  96.541 138.375  0.00  0.00    +0.000 HD
ENDBRANCH   3  11
TORSDOF 2
ENDMDL
MODEL 3
REMARK VINA RESULT:      -4.2      2.577      5.200
REMARK  Name = .\Carvacrol.pdb
REMARK  5 active torsions:
REMARK  status: ('A' for Active; 'I' for Inactive)
REMARK    1  A    between atoms: C1_1  and  C2_2
REMARK    2  A    between atoms: C2_2  and  C3_3
REMARK    3  A    between atoms: C2_2  and  C4_4
REMARK    4  A    between atoms: C6_6  and  O1_11
REMARK    5  A    between atoms: C7_7  and  C10_10
REMARK                            x       y       z     vdW  Elec       q    Type
REMARK                         _______ _______ _______ _____ _____    ______ ____
ROOT
ATOM      1  C4  UNL     1       1.853  93.805 137.813  0.00  0.00    +0.000 A 
ATOM      2  C5  UNL     1       0.905  92.877 138.280  0.00  0.00    +0.000 A 
ATOM      3  C6  UNL     1       0.940  92.424 139.607  0.00  0.00    +0.000 A 
ATOM      4  C7  UNL     1       1.930  92.898 140.485  0.00  0.00    +0.000 A 
ATOM      5  C8  UNL     1       2.877  93.824 140.021  0.00  0.00    +0.000 A 
ATOM      6  C9  UNL     1       2.839  94.273 138.699  0.00  0.00    +0.000 A 
ATOM      7  C10 UNL     1       1.973  92.417 141.907  0.00  0.00    +0.000 C 
ENDROOT
BRANCH   1   9
ATOM      8  C1  UNL     1       0.420  94.030 135.757  0.00  0.00    +0.000 C 
ATOM      9  C2  UNL     1       1.800  94.284 136.374  0.00  0.00    +0.000 C 
ATOM     10  C3  UNL     1       2.189  95.764 136.270  0.00  0.00    +0.000 C 
ENDBRANCH   1   9
BRANCH   3  11
ATOM     11  O1  UNL     1      -0.007  91.503 140.055  0.00  0.00    +0.000 OA
ATOM     12  H14 UNL     1       0.183  90.507 140.064  0.00  0.00    +0.000 HD
ENDBRANCH   3  11
TORSDOF 2
ENDMDL
MODEL 4
REMARK VINA RESULT:      -4.1      3.074      4.788
REMARK  Name = .\Carvacrol.pdb
REMARK  5 active torsions:
REMARK  status: ('A' for Active; 'I' for Inactive)
REMARK    1  A    between atoms: C1_1  and  C2_2
REMARK    2  A    between atoms: C2_2  and  C3_3
REMARK    3  A    between atoms: C2_2  and  C4_4
REMARK    4  A    between atoms: C6_6  and  O1_11
REMARK    5  A    between atoms: C7_7  and  C10_10
REMARK                            x       y       z     vdW  Elec       q    Type
REMARK                         _______ _______ _______ _____ _____    ______ ____
ROOT
ATOM      1  C4  UNL     1       1.003  91.974 141.026  0.00  0.00    +0.000 A 
ATOM      2  C5  UNL     1       0.670  92.010 139.661  0.00  0.00    +0.000 A 
ATOM      3  C6  UNL     1       1.348  92.868 138.781  0.00  0.00    +0.000 A 
ATOM      4  C7  UNL     1       2.371  93.703 139.263  0.00  0.00    +0.000 A 
ATOM      5  C8  UNL     1       2.704  93.668 140.626  0.00  0.00    +0.000 A 
ATOM      6  C9  UNL     1       2.028  92.813 141.499  0.00  0.00    +0.000 A 
ATOM      7  C10 UNL     1       3.100  94.624 138.327  0.00  0.00    +0.000 C 
ENDROOT
BRANCH   1   9
ATOM      8  C1  UNL     1       1.235  90.255 142.848  0.00  0.00    +0.000 C 
ATOM      9  C2  UNL     1       0.260  91.041 141.964  0.00  0.00    +0.000 C 
ATOM     10  C3  UNL     1      -0.761  91.807 142.813  0.00  0.00    +0.000 C 
ENDBRANCH   1   9
BRANCH   3  11
ATOM     11  O1  UNL     1       1.006  92.893 137.429  0.00  0.00    +0.000 OA
ATOM     12  H14 UNL     1       1.697  92.739 136.703  0.00  0.00    +0.000 HD
ENDBRANCH   3  11
TORSDOF 2
ENDMDL
MODEL 5
REMARK VINA RESULT:      -4.0      1.851      4.842
REMARK  Name = .\Carvacrol.pdb
REMARK  5 active torsions:
REMARK  status: ('A' for Active; 'I' for Inactive)
REMARK    1  A    between atoms: C1_1  and  C2_2
REMARK    2  A    between atoms: C2_2  and  C3_3
REMARK    3  A    between atoms: C2_2  and  C4_4
REMARK    4  A    between atoms: C6_6  and  O1_11
REMARK    5  A    between atoms: C7_7  and  C10_10
REMARK                            x       y       z     vdW  Elec       q    Type
REMARK                         _______ _______ _______ _____ _____    ______ ____
ROOT
ATOM      1  C4  UNL     1       1.768  96.642 135.343  0.00  0.00    +0.000 A 
ATOM      2  C5  UNL     1       1.163  95.378 135.445  0.00  0.00    +0.000 A 
ATOM      3  C6  UNL     1       1.474  94.519 136.509  0.00  0.00    +0.000 A 
ATOM      4  C7  UNL     1       2.401  94.919 137.487  0.00  0.00    +0.000 A 
ATOM      5  C8  UNL     1       3.007  96.181 137.387  0.00  0.00    +0.000 A 
ATOM      6  C9  UNL     1       2.694  97.034 136.326  0.00  0.00    +0.000 A 
ATOM      7  C10 UNL     1       2.739  94.004 138.629  0.00  0.00    +0.000 C 
ENDROOT
BRANCH   1   9
ATOM      8  C1  UNL     1       2.684  98.041 133.462  0.00  0.00    +0.000 C 
ATOM      9  C2  UNL     1       1.420  97.560 134.185  0.00  0.00    +0.000 C 
ATOM     10  C3  UNL     1       0.452  96.878 133.211  0.00  0.00    +0.000 C 
ENDBRANCH   1   9
BRANCH   3  11
ATOM     11  O1  UNL     1       0.865  93.267 136.596  0.00  0.00    +0.000 OA
ATOM     12  H14 UNL     1      -0.117  93.168 136.828  0.00  0.00    +0.000 HD
ENDBRANCH   3  11
TORSDOF 2
ENDMDL
MODEL 6
REMARK VINA RESULT:      -4.0      2.189      4.743
REMARK  Name = .\Carvacrol.pdb
REMARK  5 active torsions:
REMARK  status: ('A' for Active; 'I' for Inactive)
REMARK    1  A    between atoms: C1_1  and  C2_2
REMARK    2  A    between atoms: C2_2  and  C3_3
REMARK    3  A    between atoms: C2_2  and  C4_4
REMARK    4  A    between atoms: C6_6  and  O1_11
REMARK    5  A    between atoms: C7_7  and  C10_10
REMARK                            x       y       z     vdW  Elec       q    Type
REMARK                         _______ _______ _______ _____ _____    ______ ____
ROOT
ATOM      1  C4  UNL     1       2.257  95.115 136.974  0.00  0.00    +0.000 A 
ATOM      2  C5  UNL     1       2.176  94.050 137.887  0.00  0.00    +0.000 A 
ATOM      3  C6  UNL     1       2.882  94.091 139.099  0.00  0.00    +0.000 A 
ATOM      4  C7  UNL     1       3.681  95.205 139.409  0.00  0.00    +0.000 A 
ATOM      5  C8  UNL     1       3.763  96.270 138.498  0.00  0.00    +0.000 A 
ATOM      6  C9  UNL     1       3.059  96.225 137.292  0.00  0.00    +0.000 A 
ATOM      7  C10 UNL     1       4.440  95.256 140.704  0.00  0.00    +0.000 C 
ENDROOT
BRANCH   1   9
ATOM      8  C1  UNL     1       0.375  94.001 135.730  0.00  0.00    +0.000 C 
ATOM      9  C2  UNL     1       1.487  95.054 135.668  0.00  0.00    +0.000 C 
ATOM     10  C3  UNL     1       0.924  96.430 135.293  0.00  0.00    +0.000 C 
ENDBRANCH   1   9
BRANCH   3  11
ATOM     11  O1  UNL     1       2.793  93.026 139.995  0.00  0.00    +0.000 OA
ATOM     12  H14 UNL     1       3.246  92.138 139.813  0.00  0.00    +0.000 HD
ENDBRANCH   3  11
TORSDOF 2
ENDMDL
MODEL 7
REMARK VINA RESULT:      -3.8      3.077      5.829
REMARK  Name = .\Carvacrol.pdb
REMARK  5 active torsions:
REMARK  status: ('A' for Active; 'I' for Inactive)
REMARK    1  A    between atoms: C1_1  and  C2_2
REMARK    2  A    between atoms: C2_2  and  C3_3
REMARK    3  A    between atoms: C2_2  and  C4_4
REMARK    4  A    between atoms: C6_6  and  O1_11
REMARK    5  A    between atoms: C7_7  and  C10_10
REMARK                            x       y       z     vdW  Elec       q    Type
REMARK                         _______ _______ _______ _____ _____    ______ ____
ROOT
ATOM      1  C4  UNL     1       2.228  93.461 139.493  0.00  0.00    +0.000 A 
ATOM      2  C5  UNL     1       1.116  92.620 139.315  0.00  0.00    +0.000 A 
ATOM      3  C6  UNL     1       0.525  91.973 140.410  0.00  0.00    +0.000 A 
ATOM      4  C7  UNL     1       1.045  92.163 141.702  0.00  0.00    +0.000 A 
ATOM      5  C8  UNL     1       2.156  93.002 141.882  0.00  0.00    +0.000 A 
ATOM      6  C9  UNL     1       2.742  93.645 140.789  0.00  0.00    +0.000 A 
ATOM      7  C10 UNL     1       0.417  91.473 142.879  0.00  0.00    +0.000 C 
ENDROOT
BRANCH   1   9
ATOM      8  C1  UNL     1       1.826  94.372 137.183  0.00  0.00    +0.000 C 
ATOM      9  C2  UNL     1       2.856  94.153 138.297  0.00  0.00    +0.000 C 
ATOM     10  C3  UNL     1       3.516  95.475 138.707  0.00  0.00    +0.000 C 
ENDBRANCH   1   9
BRANCH   3  11
ATOM     11  O1  UNL     1      -0.578  91.141 140.217  0.00  0.00    +0.000 OA
ATOM     12  H14 UNL     1      -1.518  91.442 140.450  0.00  0.00    +0.000 HD
ENDBRANCH   3  11
TORSDOF 2
ENDMDL
MODEL 8
REMARK VINA RESULT:      -3.7      2.741      4.313
REMARK  Name = .\Carvacrol.pdb
REMARK  5 active torsions:
REMARK  status: ('A' for Active; 'I' for Inactive)
REMARK    1  A    between atoms: C1_1  and  C2_2
REMARK    2  A    between atoms: C2_2  and  C3_3
REMARK    3  A    between atoms: C2_2  and  C4_4
REMARK    4  A    between atoms: C6_6  and  O1_11
REMARK    5  A    between atoms: C7_7  and  C10_10
REMARK                            x       y       z     vdW  Elec       q    Type
REMARK                         _______ _______ _______ _____ _____    ______ ____
ROOT
ATOM      1  C4  UNL     1       1.551  92.259 140.892  0.00  0.00    +0.000 A 
ATOM      2  C5  UNL     1       2.497  93.277 141.098  0.00  0.00    +0.000 A 
ATOM      3  C6  UNL     1       2.894  94.109 140.041  0.00  0.00    +0.000 A 
ATOM      4  C7  UNL     1       2.345  93.928 138.759  0.00  0.00    +0.000 A 
ATOM      5  C8  UNL     1       1.400  92.911 138.552  0.00  0.00    +0.000 A 
ATOM      6  C9  UNL     1       1.006  92.085 139.608  0.00  0.00    +0.000 A 
ATOM      7  C10 UNL     1       2.766  94.815 137.623  0.00  0.00    +0.000 C 
ENDROOT
BRANCH   1   9
ATOM      8  C1  UNL     1       0.013  90.408 141.627  0.00  0.00    +0.000 C 
ATOM      9  C2  UNL     1       1.132  91.368 142.047  0.00  0.00    +0.000 C 
ATOM     10  C3  UNL     1       2.332  90.602 142.618  0.00  0.00    +0.000 C 
ENDBRANCH   1   9
BRANCH   3  11
ATOM     11  O1  UNL     1       3.835  95.116 140.260  0.00  0.00    +0.000 OA
ATOM     12  H14 UNL     1       3.725  96.042 139.863  0.00  0.00    +0.000 HD
ENDBRANCH   3  11
TORSDOF 2
ENDMDL
MODEL 9
REMARK VINA RESULT:      -3.7      3.182      4.897
REMARK  Name = .\Carvacrol.pdb
REMARK  5 active torsions:
REMARK  status: ('A' for Active; 'I' for Inactive)
REMARK    1  A    between atoms: C1_1  and  C2_2
REMARK    2  A    between atoms: C2_2  and  C3_3
REMARK    3  A    between atoms: C2_2  and  C4_4
REMARK    4  A    between atoms: C6_6  and  O1_11
REMARK    5  A    between atoms: C7_7  and  C10_10
REMARK                            x       y       z     vdW  Elec       q    Type
REMARK                         _______ _______ _______ _____ _____    ______ ____
ROOT
ATOM      1  C4  UNL     1       3.454  94.726 139.757  0.00  0.00    +0.000 A 
ATOM      2  C5  UNL     1       2.790  94.245 138.615  0.00  0.00    +0.000 A 
ATOM      3  C6  UNL     1       1.819  93.239 138.723  0.00  0.00    +0.000 A 
ATOM      4  C7  UNL     1       1.502  92.701 139.982  0.00  0.00    +0.000 A 
ATOM      5  C8  UNL     1       2.164  93.179 141.123  0.00  0.00    +0.000 A 
ATOM      6  C9  UNL     1       3.130  94.182 141.012  0.00  0.00    +0.000 A 
ATOM      7  C10 UNL     1       0.463  91.623 140.105  0.00  0.00    +0.000 C 
ENDROOT
BRANCH   1   9
ATOM      8  C1  UNL     1       4.236  96.689 138.391  0.00  0.00    +0.000 C 
ATOM      9  C2  UNL     1       4.502  95.815 139.622  0.00  0.00    +0.000 C 
ATOM     10  C3  UNL     1       4.584  96.665 140.896  0.00  0.00    +0.000 C 
ENDBRANCH   1   9
BRANCH   3  11
ATOM     11  O1  UNL     1       1.169  92.771 137.581  0.00  0.00    +0.000 OA
ATOM     12  H14 UNL     1       1.684  92.479 136.758  0.00  0.00    +0.000 HD
ENDBRANCH   3  11
TORSDOF 2
ENDMDL
