MODEL 1
REMARK VINA RESULT:      -4.9      0.000      0.000
REMARK  Name = .\Carvone.pdb
REMARK  3 active torsions:
REMARK  status: ('A' for Active; 'I' for Inactive)
REMARK    1  A    between atoms: C1_1  and  C2_2
REMARK    2  A    between atoms: C7_8  and  C8_9
REMARK    3  A    between atoms: C7_8  and  C9_10
REMARK                            x       y       z     vdW  Elec       q    Type
REMARK                         _______ _______ _______ _____ _____    ______ ____
ROOT
ATOM      1  C1  UNL     1      -0.369  93.918 116.455  0.00  0.00    +0.000 C 
ATOM      2  C2  UNL     1      -1.867  93.865 116.281  0.00  0.00    +0.000 C 
ATOM      3  C3  UNL     1      -2.334  93.517 115.071  0.00  0.00    +0.000 C 
ATOM      4  C4  UNL     1      -3.771  93.438 114.805  0.00  0.00    +0.000 C 
ATOM      5  O1  UNL     1      -4.187  93.109 113.663  0.00  0.00    +0.000 OA
ATOM      6  C5  UNL     1      -4.722  93.742 115.871  0.00  0.00    +0.000 C 
ATOM      7  C6  UNL     1      -4.290  94.089 117.083  0.00  0.00    +0.000 C 
ATOM      8  C7  UNL     1      -2.814  94.198 117.450  0.00  0.00    +0.000 C 
ATOM      9  C8  UNL     1      -2.564  95.645 117.919  0.00  0.00    +0.000 C 
ATOM     10  C9  UNL     1      -2.558  93.221 118.615  0.00  0.00    +0.000 C 
ENDROOT
TORSDOF 0
ENDMDL
MODEL 2
REMARK VINA RESULT:      -4.7      0.907      2.624
REMARK  Name = .\Carvone.pdb
REMARK  3 active torsions:
REMARK  status: ('A' for Active; 'I' for Inactive)
REMARK    1  A    between atoms: C1_1  and  C2_2
REMARK    2  A    between atoms: C7_8  and  C8_9
REMARK    3  A    between atoms: C7_8  and  C9_10
REMARK                            x       y       z     vdW  Elec       q    Type
REMARK                         _______ _______ _______ _____ _____    ______ ____
ROOT
ATOM      1  C1  UNL     1      -5.080  94.121 117.193  0.00  0.00    +0.000 C 
ATOM      2  C2  UNL     1      -3.871  93.903 116.316  0.00  0.00    +0.000 C 
ATOM      3  C3  UNL     1      -4.074  93.336 115.116  0.00  0.00    +0.000 C 
ATOM      4  C4  UNL     1      -2.964  93.085 114.196  0.00  0.00    +0.000 C 
ATOM      5  O1  UNL     1      -3.179  92.552 113.075  0.00  0.00    +0.000 OA
ATOM      6  C5  UNL     1      -1.606  93.456 114.583  0.00  0.00    +0.000 C 
ATOM      7  C6  UNL     1      -1.371  94.021 115.767  0.00  0.00    +0.000 C 
ATOM      8  C7  UNL     1      -2.464  94.320 116.788  0.00  0.00    +0.000 C 
ATOM      9  C8  UNL     1      -2.107  93.555 118.078  0.00  0.00    +0.000 C 
ATOM     10  C9  UNL     1      -2.438  95.837 117.056  0.00  0.00    +0.000 C 
ENDROOT
TORSDOF 0
ENDMDL
MODEL 3
REMARK VINA RESULT:      -4.3      1.188      1.372
REMARK  Name = .\Carvone.pdb
REMARK  3 active torsions:
REMARK  status: ('A' for Active; 'I' for Inactive)
REMARK    1  A    between atoms: C1_1  and  C2_2
REMARK    2  A    between atoms: C7_8  and  C8_9
REMARK    3  A    between atoms: C7_8  and  C9_10
REMARK                            x       y       z     vdW  Elec       q    Type
REMARK                         _______ _______ _______ _____ _____    ______ ____
ROOT
ATOM      1  C1  UNL     1       0.422  93.742 115.966  0.00  0.00    +0.000 C 
ATOM      2  C2  UNL     1      -1.029  93.629 115.568  0.00  0.00    +0.000 C 
ATOM      3  C3  UNL     1      -1.311  92.934 114.454  0.00  0.00    +0.000 C 
ATOM      4  C4  UNL     1      -2.689  92.770 113.989  0.00  0.00    +0.000 C 
ATOM      5  O1  UNL     1      -2.929  92.113 112.941  0.00  0.00    +0.000 OA
ATOM      6  C5  UNL     1      -3.784  93.371 114.744  0.00  0.00    +0.000 C 
ATOM      7  C6  UNL     1      -3.537  94.067 115.854  0.00  0.00    +0.000 C 
ATOM      8  C7  UNL     1      -2.137  94.290 116.413  0.00  0.00    +0.000 C 
ATOM      9  C8  UNL     1      -1.903  95.812 116.469  0.00  0.00    +0.000 C 
ATOM     10  C9  UNL     1      -2.114  93.706 117.839  0.00  0.00    +0.000 C 
ENDROOT
TORSDOF 0
ENDMDL
MODEL 4
REMARK VINA RESULT:      -4.3      1.017      2.605
REMARK  Name = .\Carvone.pdb
REMARK  3 active torsions:
REMARK  status: ('A' for Active; 'I' for Inactive)
REMARK    1  A    between atoms: C1_1  and  C2_2
REMARK    2  A    between atoms: C7_8  and  C8_9
REMARK    3  A    between atoms: C7_8  and  C9_10
REMARK                            x       y       z     vdW  Elec       q    Type
REMARK                         _______ _______ _______ _____ _____    ______ ____
ROOT
ATOM      1  C1  UNL     1      -2.833  95.267 118.216  0.00  0.00    +0.000 C 
ATOM      2  C2  UNL     1      -2.770  94.552 116.887  0.00  0.00    +0.000 C 
ATOM      3  C3  UNL     1      -3.935  94.180 116.333  0.00  0.00    +0.000 C 
ATOM      4  C4  UNL     1      -3.975  93.482 115.047  0.00  0.00    +0.000 C 
ATOM      5  O1  UNL     1      -5.080  93.143 114.546  0.00  0.00    +0.000 OA
ATOM      6  C5  UNL     1      -2.730  93.181 114.347  0.00  0.00    +0.000 C 
ATOM      7  C6  UNL     1      -1.557  93.539 114.872  0.00  0.00    +0.000 C 
ATOM      8  C7  UNL     1      -1.419  94.267 116.204  0.00  0.00    +0.000 C 
ATOM      9  C8  UNL     1      -0.553  93.382 117.122  0.00  0.00    +0.000 C 
ATOM     10  C9  UNL     1      -0.691  95.597 115.925  0.00  0.00    +0.000 C 
ENDROOT
TORSDOF 0
ENDMDL
MODEL 5
REMARK VINA RESULT:      -3.9      2.054      3.226
REMARK  Name = .\Carvone.pdb
REMARK  3 active torsions:
REMARK  status: ('A' for Active; 'I' for Inactive)
REMARK    1  A    between atoms: C1_1  and  C2_2
REMARK    2  A    between atoms: C7_8  and  C8_9
REMARK    3  A    between atoms: C7_8  and  C9_10
REMARK                            x       y       z     vdW  Elec       q    Type
REMARK                         _______ _______ _______ _____ _____    ______ ____
ROOT
ATOM      1  C1  UNL     1      -2.431  93.580 118.657  0.00  0.00    +0.000 C 
ATOM      2  C2  UNL     1      -1.866  93.801 117.275  0.00  0.00    +0.000 C 
ATOM      3  C3  UNL     1      -0.671  93.253 117.003  0.00  0.00    +0.000 C 
ATOM      4  C4  UNL     1      -0.043  93.412 115.691  0.00  0.00    +0.000 C 
ATOM      5  O1  UNL     1       1.079  92.889 115.458  0.00  0.00    +0.000 OA
ATOM      6  C5  UNL     1      -0.723  94.181 114.652  0.00  0.00    +0.000 C 
ATOM      7  C6  UNL     1      -1.910  94.737 114.890  0.00  0.00    +0.000 C 
ATOM      8  C7  UNL     1      -2.639  94.624 116.225  0.00  0.00    +0.000 C 
ATOM      9  C8  UNL     1      -2.855  96.056 116.751  0.00  0.00    +0.000 C 
ATOM     10  C9  UNL     1      -4.001  93.958 115.949  0.00  0.00    +0.000 C 
ENDROOT
TORSDOF 0
ENDMDL
MODEL 6
REMARK VINA RESULT:      -3.8      2.139      3.420
REMARK  Name = .\Carvone.pdb
REMARK  3 active torsions:
REMARK  status: ('A' for Active; 'I' for Inactive)
REMARK    1  A    between atoms: C1_1  and  C2_2
REMARK    2  A    between atoms: C7_8  and  C8_9
REMARK    3  A    between atoms: C7_8  and  C9_10
REMARK                            x       y       z     vdW  Elec       q    Type
REMARK                         _______ _______ _______ _____ _____    ______ ____
ROOT
ATOM      1  C1  UNL     1      -2.802  96.238 119.238  0.00  0.00    +0.000 C 
ATOM      2  C2  UNL     1      -2.205  95.619 117.997  0.00  0.00    +0.000 C 
ATOM      3  C3  UNL     1      -1.266  96.325 117.347  0.00  0.00    +0.000 C 
ATOM      4  C4  UNL     1      -0.630  95.807 116.135  0.00  0.00    +0.000 C 
ATOM      5  O1  UNL     1       0.249  96.487 115.542  0.00  0.00    +0.000 OA
ATOM      6  C5  UNL     1      -1.019  94.500 115.615  0.00  0.00    +0.000 C 
ATOM      7  C6  UNL     1      -1.948  93.774 116.238  0.00  0.00    +0.000 C 
ATOM      8  C7  UNL     1      -2.663  94.232 117.505  0.00  0.00    +0.000 C 
ATOM      9  C8  UNL     1      -4.172  94.269 117.191  0.00  0.00    +0.000 C 
ATOM     10  C9  UNL     1      -2.383  93.180 118.595  0.00  0.00    +0.000 C 
ENDROOT
TORSDOF 0
ENDMDL
MODEL 7
REMARK VINA RESULT:      -3.8      2.238      3.952
REMARK  Name = .\Carvone.pdb
REMARK  3 active torsions:
REMARK  status: ('A' for Active; 'I' for Inactive)
REMARK    1  A    between atoms: C1_1  and  C2_2
REMARK    2  A    between atoms: C7_8  and  C8_9
REMARK    3  A    between atoms: C7_8  and  C9_10
REMARK                            x       y       z     vdW  Elec       q    Type
REMARK                         _______ _______ _______ _____ _____    ______ ____
ROOT
ATOM      1  C1  UNL     1       0.912  93.129 115.129  0.00  0.00    +0.000 C 
ATOM      2  C2  UNL     1      -0.553  93.162 114.767  0.00  0.00    +0.000 C 
ATOM      3  C3  UNL     1      -1.390  93.740 115.643  0.00  0.00    +0.000 C 
ATOM      4  C4  UNL     1      -2.828  93.821 115.380  0.00  0.00    +0.000 C 
ATOM      5  O1  UNL     1      -3.595  94.368 116.216  0.00  0.00    +0.000 OA
ATOM      6  C5  UNL     1      -3.370  93.263 114.144  0.00  0.00    +0.000 C 
ATOM      7  C6  UNL     1      -2.564  92.683 113.254  0.00  0.00    +0.000 C 
ATOM      8  C7  UNL     1      -1.057  92.554 113.444  0.00  0.00    +0.000 C 
ATOM      9  C8  UNL     1      -0.718  91.051 113.405  0.00  0.00    +0.000 C 
ATOM     10  C9  UNL     1      -0.383  93.271 112.258  0.00  0.00    +0.000 C 
ENDROOT
TORSDOF 0
ENDMDL
MODEL 8
REMARK VINA RESULT:      -3.7      2.218      3.322
REMARK  Name = .\Carvone.pdb
REMARK  3 active torsions:
REMARK  status: ('A' for Active; 'I' for Inactive)
REMARK    1  A    between atoms: C1_1  and  C2_2
REMARK    2  A    between atoms: C7_8  and  C8_9
REMARK    3  A    between atoms: C7_8  and  C9_10
REMARK                            x       y       z     vdW  Elec       q    Type
REMARK                         _______ _______ _______ _____ _____    ______ ____
ROOT
ATOM      1  C1  UNL     1      -1.792  94.477 114.159  0.00  0.00    +0.000 C 
ATOM      2  C2  UNL     1      -1.817  94.159 115.635  0.00  0.00    +0.000 C 
ATOM      3  C3  UNL     1      -0.765  93.496 116.140  0.00  0.00    +0.000 C 
ATOM      4  C4  UNL     1      -0.699  93.143 117.559  0.00  0.00    +0.000 C 
ATOM      5  O1  UNL     1       0.299  92.521 118.011  0.00  0.00    +0.000 OA
ATOM      6  C5  UNL     1      -1.795  93.515 118.448  0.00  0.00    +0.000 C 
ATOM      7  C6  UNL     1      -2.853  94.175 117.977  0.00  0.00    +0.000 C 
ATOM      8  C7  UNL     1      -3.008  94.583 116.517  0.00  0.00    +0.000 C 
ATOM      9  C8  UNL     1      -4.299  93.924 115.991  0.00  0.00    +0.000 C 
ATOM     10  C9  UNL     1      -3.154  96.117 116.483  0.00  0.00    +0.000 C 
ENDROOT
TORSDOF 0
ENDMDL
MODEL 9
REMARK VINA RESULT:      -3.6      2.131      3.341
REMARK  Name = .\Carvone.pdb
REMARK  3 active torsions:
REMARK  status: ('A' for Active; 'I' for Inactive)
REMARK    1  A    between atoms: C1_1  and  C2_2
REMARK    2  A    between atoms: C7_8  and  C8_9
REMARK    3  A    between atoms: C7_8  and  C9_10
REMARK                            x       y       z     vdW  Elec       q    Type
REMARK                         _______ _______ _______ _____ _____    ______ ____
ROOT
ATOM      1  C1  UNL     1       0.316  93.248 115.336  0.00  0.00    +0.000 C 
ATOM      2  C2  UNL     1      -1.057  93.488 115.915  0.00  0.00    +0.000 C 
ATOM      3  C3  UNL     1      -1.194  93.368 117.245  0.00  0.00    +0.000 C 
ATOM      4  C4  UNL     1      -2.486  93.582 117.898  0.00  0.00    +0.000 C 
ATOM      5  O1  UNL     1      -2.591  93.464 119.148  0.00  0.00    +0.000 OA
ATOM      6  C5  UNL     1      -3.653  93.933 117.095  0.00  0.00    +0.000 C 
ATOM      7  C6  UNL     1      -3.549  94.061 115.772  0.00  0.00    +0.000 C 
ATOM      8  C7  UNL     1      -2.247  93.857 115.007  0.00  0.00    +0.000 C 
ATOM      9  C8  UNL     1      -2.486  92.726 113.988  0.00  0.00    +0.000 C 
ATOM     10  C9  UNL     1      -1.940  95.172 114.265  0.00  0.00    +0.000 C 
ENDROOT
TORSDOF 0
ENDMDL
