MODEL 1
REMARK VINA RESULT:      -4.1      0.000      0.000
REMARK  Name = .\Carvacrol.pdb
REMARK  5 active torsions:
REMARK  status: ('A' for Active; 'I' for Inactive)
REMARK    1  A    between atoms: C1_1  and  C2_2
REMARK    2  A    between atoms: C2_2  and  C3_3
REMARK    3  A    between atoms: C2_2  and  C4_4
REMARK    4  A    between atoms: C6_6  and  O1_11
REMARK    5  A    between atoms: C7_7  and  C10_10
REMARK                            x       y       z     vdW  Elec       q    Type
REMARK                         _______ _______ _______ _____ _____    ______ ____
ROOT
ATOM      1  C4  UNL     1     -24.800  40.015   3.841  0.00  0.00    +0.000 A 
ATOM      2  C5  UNL     1     -23.615  39.262   3.783  0.00  0.00    +0.000 A 
ATOM      3  C6  UNL     1     -23.548  38.090   3.015  0.00  0.00    +0.000 A 
ATOM      4  C7  UNL     1     -24.675  37.658   2.295  0.00  0.00    +0.000 A 
ATOM      5  C8  UNL     1     -25.859  38.408   2.351  0.00  0.00    +0.000 A 
ATOM      6  C9  UNL     1     -25.922  39.575   3.117  0.00  0.00    +0.000 A 
ATOM      7  C10 UNL     1     -24.610  36.403   1.471  0.00  0.00    +0.000 C 
ENDROOT
BRANCH   1   9
ATOM      8  C1  UNL     1     -25.906  42.256   4.133  0.00  0.00    +0.000 C 
ATOM      9  C2  UNL     1     -24.856  41.280   4.677  0.00  0.00    +0.000 C 
ATOM     10  C3  UNL     1     -25.113  40.958   6.154  0.00  0.00    +0.000 C 
ENDBRANCH   1   9
BRANCH   3  11
ATOM     11  O1  UNL     1     -22.364  37.353   2.968  0.00  0.00    +0.000 OA
ATOM     12  H14 UNL     1     -21.521  37.729   2.549  0.00  0.00    +0.000 HD
ENDBRANCH   3  11
TORSDOF 2
ENDMDL
MODEL 2
REMARK VINA RESULT:      -3.9      2.149      4.494
REMARK  Name = .\Carvacrol.pdb
REMARK  5 active torsions:
REMARK  status: ('A' for Active; 'I' for Inactive)
REMARK    1  A    between atoms: C1_1  and  C2_2
REMARK    2  A    between atoms: C2_2  and  C3_3
REMARK    3  A    between atoms: C2_2  and  C4_4
REMARK    4  A    between atoms: C6_6  and  O1_11
REMARK    5  A    between atoms: C7_7  and  C10_10
REMARK                            x       y       z     vdW  Elec       q    Type
REMARK                         _______ _______ _______ _____ _____    ______ ____
ROOT
ATOM      1  C4  UNL     1     -25.857  38.523   3.702  0.00  0.00    +0.000 A 
ATOM      2  C5  UNL     1     -25.554  39.840   3.316  0.00  0.00    +0.000 A 
ATOM      3  C6  UNL     1     -25.023  40.752   4.240  0.00  0.00    +0.000 A 
ATOM      4  C7  UNL     1     -24.790  40.352   5.567  0.00  0.00    +0.000 A 
ATOM      5  C8  UNL     1     -25.092  39.038   5.955  0.00  0.00    +0.000 A 
ATOM      6  C9  UNL     1     -25.620  38.132   5.032  0.00  0.00    +0.000 A 
ATOM      7  C10 UNL     1     -24.221  41.324   6.562  0.00  0.00    +0.000 C 
ENDROOT
BRANCH   1   9
ATOM      8  C1  UNL     1     -25.318  36.874   1.880  0.00  0.00    +0.000 C 
ATOM      9  C2  UNL     1     -26.431  37.549   2.690  0.00  0.00    +0.000 C 
ATOM     10  C3  UNL     1     -27.328  36.508   3.371  0.00  0.00    +0.000 C 
ENDBRANCH   1   9
BRANCH   3  11
ATOM     11  O1  UNL     1     -24.728  42.056   3.842  0.00  0.00    +0.000 OA
ATOM     12  H14 UNL     1     -25.122  42.860   4.319  0.00  0.00    +0.000 HD
ENDBRANCH   3  11
TORSDOF 2
ENDMDL
MODEL 3
REMARK VINA RESULT:      -3.9      1.430      2.043
REMARK  Name = .\Carvacrol.pdb
REMARK  5 active torsions:
REMARK  status: ('A' for Active; 'I' for Inactive)
REMARK    1  A    between atoms: C1_1  and  C2_2
REMARK    2  A    between atoms: C2_2  and  C3_3
REMARK    3  A    between atoms: C2_2  and  C4_4
REMARK    4  A    between atoms: C6_6  and  O1_11
REMARK    5  A    between atoms: C7_7  and  C10_10
REMARK                            x       y       z     vdW  Elec       q    Type
REMARK                         _______ _______ _______ _____ _____    ______ ____
ROOT
ATOM      1  C4  UNL     1     -24.742  40.073   3.935  0.00  0.00    +0.000 A 
ATOM      2  C5  UNL     1     -25.870  39.565   3.267  0.00  0.00    +0.000 A 
ATOM      3  C6  UNL     1     -25.773  38.412   2.475  0.00  0.00    +0.000 A 
ATOM      4  C7  UNL     1     -24.539  37.752   2.342  0.00  0.00    +0.000 A 
ATOM      5  C8  UNL     1     -23.412  38.258   3.007  0.00  0.00    +0.000 A 
ATOM      6  C9  UNL     1     -23.512  39.406   3.796  0.00  0.00    +0.000 A 
ATOM      7  C10 UNL     1     -24.428  36.517   1.494  0.00  0.00    +0.000 C 
ENDROOT
BRANCH   1   9
ATOM      8  C1  UNL     1     -25.947  42.260   4.242  0.00  0.00    +0.000 C 
ATOM      9  C2  UNL     1     -24.865  41.321   4.788  0.00  0.00    +0.000 C 
ATOM     10  C3  UNL     1     -25.132  40.965   6.256  0.00  0.00    +0.000 C 
ENDBRANCH   1   9
BRANCH   3  11
ATOM     11  O1  UNL     1     -26.901  37.920   1.817  0.00  0.00    +0.000 OA
ATOM     12  H14 UNL     1     -27.562  37.307   2.281  0.00  0.00    +0.000 HD
ENDBRANCH   3  11
TORSDOF 2
ENDMDL
MODEL 4
REMARK VINA RESULT:      -3.8      3.113      5.233
REMARK  Name = .\Carvacrol.pdb
REMARK  5 active torsions:
REMARK  status: ('A' for Active; 'I' for Inactive)
REMARK    1  A    between atoms: C1_1  and  C2_2
REMARK    2  A    between atoms: C2_2  and  C3_3
REMARK    3  A    between atoms: C2_2  and  C4_4
REMARK    4  A    between atoms: C6_6  and  O1_11
REMARK    5  A    between atoms: C7_7  and  C10_10
REMARK                            x       y       z     vdW  Elec       q    Type
REMARK                         _______ _______ _______ _____ _____    ______ ____
ROOT
ATOM      1  C4  UNL     1     -24.565  40.685   5.433  0.00  0.00    +0.000 A 
ATOM      2  C5  UNL     1     -25.137  40.792   6.712  0.00  0.00    +0.000 A 
ATOM      3  C6  UNL     1     -26.262  41.602   6.928  0.00  0.00    +0.000 A 
ATOM      4  C7  UNL     1     -26.828  42.318   5.859  0.00  0.00    +0.000 A 
ATOM      5  C8  UNL     1     -26.258  42.212   4.580  0.00  0.00    +0.000 A 
ATOM      6  C9  UNL     1     -25.138  41.404   4.369  0.00  0.00    +0.000 A 
ATOM      7  C10 UNL     1     -28.032  43.187   6.082  0.00  0.00    +0.000 C 
ENDROOT
BRANCH   1   9
ATOM      8  C1  UNL     1     -23.231  38.745   6.319  0.00  0.00    +0.000 C 
ATOM      9  C2  UNL     1     -23.349  39.804   5.217  0.00  0.00    +0.000 C 
ATOM     10  C3  UNL     1     -23.375  39.155   3.828  0.00  0.00    +0.000 C 
ENDBRANCH   1   9
BRANCH   3  11
ATOM     11  O1  UNL     1     -26.818  41.699   8.204  0.00  0.00    +0.000 OA
ATOM     12  H14 UNL     1     -26.399  42.275   8.924  0.00  0.00    +0.000 HD
ENDBRANCH   3  11
TORSDOF 2
ENDMDL
MODEL 5
REMARK VINA RESULT:      -3.7      2.259      4.362
REMARK  Name = .\Carvacrol.pdb
REMARK  5 active torsions:
REMARK  status: ('A' for Active; 'I' for Inactive)
REMARK    1  A    between atoms: C1_1  and  C2_2
REMARK    2  A    between atoms: C2_2  and  C3_3
REMARK    3  A    between atoms: C2_2  and  C4_4
REMARK    4  A    between atoms: C6_6  and  O1_11
REMARK    5  A    between atoms: C7_7  and  C10_10
REMARK                            x       y       z     vdW  Elec       q    Type
REMARK                         _______ _______ _______ _____ _____    ______ ____
ROOT
ATOM      1  C4  UNL     1     -23.591  38.755   5.070  0.00  0.00    +0.000 A 
ATOM      2  C5  UNL     1     -24.404  38.754   3.923  0.00  0.00    +0.000 A 
ATOM      3  C6  UNL     1     -25.171  39.879   3.588  0.00  0.00    +0.000 A 
ATOM      4  C7  UNL     1     -25.132  41.024   4.403  0.00  0.00    +0.000 A 
ATOM      5  C8  UNL     1     -24.322  41.027   5.549  0.00  0.00    +0.000 A 
ATOM      6  C9  UNL     1     -23.559  39.905   5.879  0.00  0.00    +0.000 A 
ATOM      7  C10 UNL     1     -25.951  42.233   4.050  0.00  0.00    +0.000 C 
ENDROOT
BRANCH   1   9
ATOM      8  C1  UNL     1     -22.223  37.617   6.849  0.00  0.00    +0.000 C 
ATOM      9  C2  UNL     1     -22.768  37.529   5.418  0.00  0.00    +0.000 C 
ATOM     10  C3  UNL     1     -23.577  36.243   5.214  0.00  0.00    +0.000 C 
ENDBRANCH   1   9
BRANCH   3  11
ATOM     11  O1  UNL     1     -25.973  39.863   2.447  0.00  0.00    +0.000 OA
ATOM     12  H14 UNL     1     -26.149  39.007   1.933  0.00  0.00    +0.000 HD
ENDBRANCH   3  11
TORSDOF 2
ENDMDL
MODEL 6
REMARK VINA RESULT:      -3.7      2.152      4.642
REMARK  Name = .\Carvacrol.pdb
REMARK  5 active torsions:
REMARK  status: ('A' for Active; 'I' for Inactive)
REMARK    1  A    between atoms: C1_1  and  C2_2
REMARK    2  A    between atoms: C2_2  and  C3_3
REMARK    3  A    between atoms: C2_2  and  C4_4
REMARK    4  A    between atoms: C6_6  and  O1_11
REMARK    5  A    between atoms: C7_7  and  C10_10
REMARK                            x       y       z     vdW  Elec       q    Type
REMARK                         _______ _______ _______ _____ _____    ______ ____
ROOT
ATOM      1  C4  UNL     1     -24.741  38.955   3.322  0.00  0.00    +0.000 A 
ATOM      2  C5  UNL     1     -25.667  39.896   3.805  0.00  0.00    +0.000 A 
ATOM      3  C6  UNL     1     -25.382  40.662   4.944  0.00  0.00    +0.000 A 
ATOM      4  C7  UNL     1     -24.158  40.493   5.616  0.00  0.00    +0.000 A 
ATOM      5  C8  UNL     1     -23.232  39.554   5.136  0.00  0.00    +0.000 A 
ATOM      6  C9  UNL     1     -23.520  38.793   4.000  0.00  0.00    +0.000 A 
ATOM      7  C10 UNL     1     -23.846  41.310   6.837  0.00  0.00    +0.000 C 
ENDROOT
BRANCH   1   9
ATOM      8  C1  UNL     1     -23.964  37.108   1.801  0.00  0.00    +0.000 C 
ATOM      9  C2  UNL     1     -25.066  38.135   2.088  0.00  0.00    +0.000 C 
ATOM     10  C3  UNL     1     -26.434  37.455   2.220  0.00  0.00    +0.000 C 
ENDBRANCH   1   9
BRANCH   3  11
ATOM     11  O1  UNL     1     -26.311  41.591   5.412  0.00  0.00    +0.000 OA
ATOM     12  H14 UNL     1     -26.155  42.589   5.325  0.00  0.00    +0.000 HD
ENDBRANCH   3  11
TORSDOF 2
ENDMDL
MODEL 7
REMARK VINA RESULT:      -3.6      1.333      2.149
REMARK  Name = .\Carvacrol.pdb
REMARK  5 active torsions:
REMARK  status: ('A' for Active; 'I' for Inactive)
REMARK    1  A    between atoms: C1_1  and  C2_2
REMARK    2  A    between atoms: C2_2  and  C3_3
REMARK    3  A    between atoms: C2_2  and  C4_4
REMARK    4  A    between atoms: C6_6  and  O1_11
REMARK    5  A    between atoms: C7_7  and  C10_10
REMARK                            x       y       z     vdW  Elec       q    Type
REMARK                         _______ _______ _______ _____ _____    ______ ____
ROOT
ATOM      1  C4  UNL     1     -24.286  40.619   5.602  0.00  0.00    +0.000 A 
ATOM      2  C5  UNL     1     -23.375  39.608   5.253  0.00  0.00    +0.000 A 
ATOM      3  C6  UNL     1     -23.587  38.814   4.116  0.00  0.00    +0.000 A 
ATOM      4  C7  UNL     1     -24.721  39.026   3.314  0.00  0.00    +0.000 A 
ATOM      5  C8  UNL     1     -25.633  40.035   3.661  0.00  0.00    +0.000 A 
ATOM      6  C9  UNL     1     -25.418  40.824   4.793  0.00  0.00    +0.000 A 
ATOM      7  C10 UNL     1     -24.955  38.179   2.095  0.00  0.00    +0.000 C 
ENDROOT
BRANCH   1   9
ATOM      8  C1  UNL     1     -25.296  41.543   7.714  0.00  0.00    +0.000 C 
ATOM      9  C2  UNL     1     -24.041  41.468   6.836  0.00  0.00    +0.000 C 
ATOM     10  C3  UNL     1     -22.838  40.952   7.634  0.00  0.00    +0.000 C 
ENDBRANCH   1   9
BRANCH   3  11
ATOM     11  O1  UNL     1     -22.674  37.813   3.783  0.00  0.00    +0.000 OA
ATOM     12  H14 UNL     1     -21.731  37.809   4.155  0.00  0.00    +0.000 HD
ENDBRANCH   3  11
TORSDOF 2
ENDMDL
MODEL 8
REMARK VINA RESULT:      -3.6      1.579      4.171
REMARK  Name = .\Carvacrol.pdb
REMARK  5 active torsions:
REMARK  status: ('A' for Active; 'I' for Inactive)
REMARK    1  A    between atoms: C1_1  and  C2_2
REMARK    2  A    between atoms: C2_2  and  C3_3
REMARK    3  A    between atoms: C2_2  and  C4_4
REMARK    4  A    between atoms: C6_6  and  O1_11
REMARK    5  A    between atoms: C7_7  and  C10_10
REMARK                            x       y       z     vdW  Elec       q    Type
REMARK                         _______ _______ _______ _____ _____    ______ ____
ROOT
ATOM      1  C4  UNL     1     -25.188  39.339   3.570  0.00  0.00    +0.000 A 
ATOM      2  C5  UNL     1     -24.252  38.801   4.470  0.00  0.00    +0.000 A 
ATOM      3  C6  UNL     1     -23.848  39.525   5.601  0.00  0.00    +0.000 A 
ATOM      4  C7  UNL     1     -24.381  40.804   5.844  0.00  0.00    +0.000 A 
ATOM      5  C8  UNL     1     -25.316  41.343   4.947  0.00  0.00    +0.000 A 
ATOM      6  C9  UNL     1     -25.716  40.618   3.821  0.00  0.00    +0.000 A 
ATOM      7  C10 UNL     1     -23.953  41.585   7.053  0.00  0.00    +0.000 C 
ENDROOT
BRANCH   1   9
ATOM      8  C1  UNL     1     -24.408  37.873   1.680  0.00  0.00    +0.000 C 
ATOM      9  C2  UNL     1     -25.614  38.542   2.351  0.00  0.00    +0.000 C 
ATOM     10  C3  UNL     1     -26.688  37.509   2.713  0.00  0.00    +0.000 C 
ENDBRANCH   1   9
BRANCH   3  11
ATOM     11  O1  UNL     1     -22.918  38.979   6.485  0.00  0.00    +0.000 OA
ATOM     12  H14 UNL     1     -22.693  37.990   6.476  0.00  0.00    +0.000 HD
ENDBRANCH   3  11
TORSDOF 2
ENDMDL
MODEL 9
REMARK VINA RESULT:      -3.4      2.529      3.730
REMARK  Name = .\Carvacrol.pdb
REMARK  5 active torsions:
REMARK  status: ('A' for Active; 'I' for Inactive)
REMARK    1  A    between atoms: C1_1  and  C2_2
REMARK    2  A    between atoms: C2_2  and  C3_3
REMARK    3  A    between atoms: C2_2  and  C4_4
REMARK    4  A    between atoms: C6_6  and  O1_11
REMARK    5  A    between atoms: C7_7  and  C10_10
REMARK                            x       y       z     vdW  Elec       q    Type
REMARK                         _______ _______ _______ _____ _____    ______ ____
ROOT
ATOM      1  C4  UNL     1     -26.215  41.595   6.448  0.00  0.00    +0.000 A 
ATOM      2  C5  UNL     1     -25.467  40.583   7.072  0.00  0.00    +0.000 A 
ATOM      3  C6  UNL     1     -24.508  39.854   6.353  0.00  0.00    +0.000 A 
ATOM      4  C7  UNL     1     -24.288  40.133   4.993  0.00  0.00    +0.000 A 
ATOM      5  C8  UNL     1     -25.034  41.144   4.368  0.00  0.00    +0.000 A 
ATOM      6  C9  UNL     1     -25.988  41.868   5.087  0.00  0.00    +0.000 A 
ATOM      7  C10 UNL     1     -23.263  39.357   4.217  0.00  0.00    +0.000 C 
ENDROOT
BRANCH   1   9
ATOM      8  C1  UNL     1     -28.231  43.094   6.310  0.00  0.00    +0.000 C 
ATOM      9  C2  UNL     1     -27.248  42.374   7.241  0.00  0.00    +0.000 C 
ATOM     10  C3  UNL     1     -27.988  41.465   8.229  0.00  0.00    +0.000 C 
ENDBRANCH   1   9
BRANCH   3  11
ATOM     11  O1  UNL     1     -23.774  38.851   6.987  0.00  0.00    +0.000 OA
ATOM     12  H14 UNL     1     -23.483  38.936   7.954  0.00  0.00    +0.000 HD
ENDBRANCH   3  11
TORSDOF 2
ENDMDL
