MODEL 1
REMARK VINA RESULT:      -5.8      0.000      0.000
REMARK  Name = .\Carvacrol.pdb
REMARK  5 active torsions:
REMARK  status: ('A' for Active; 'I' for Inactive)
REMARK    1  A    between atoms: C1_1  and  C2_2
REMARK    2  A    between atoms: C2_2  and  C3_3
REMARK    3  A    between atoms: C2_2  and  C4_4
REMARK    4  A    between atoms: C6_6  and  O1_11
REMARK    5  A    between atoms: C7_7  and  C10_10
REMARK                            x       y       z     vdW  Elec       q    Type
REMARK                         _______ _______ _______ _____ _____    ______ ____
ROOT
ATOM      1  C4  UNL     1       0.838  79.567 104.661  0.00  0.00    +0.000 A 
ATOM      2  C5  UNL     1       0.288  80.848 104.480  0.00  0.00    +0.000 A 
ATOM      3  C6  UNL     1       0.150  81.727 105.564  0.00  0.00    +0.000 A 
ATOM      4  C7  UNL     1       0.563  81.330 106.848  0.00  0.00    +0.000 A 
ATOM      5  C8  UNL     1       1.112  80.052 107.031  0.00  0.00    +0.000 A 
ATOM      6  C9  UNL     1       1.249  79.179 105.948  0.00  0.00    +0.000 A 
ATOM      7  C10 UNL     1       0.418  82.267 108.013  0.00  0.00    +0.000 C 
ENDROOT
BRANCH   1   9
ATOM      8  C1  UNL     1       2.400  78.677 102.901  0.00  0.00    +0.000 C 
ATOM      9  C2  UNL     1       0.980  78.628 103.477  0.00  0.00    +0.000 C 
ATOM     10  C3  UNL     1       0.587  77.195 103.858  0.00  0.00    +0.000 C 
ENDBRANCH   1   9
BRANCH   3  11
ATOM     11  O1  UNL     1      -0.398  82.995 105.369  0.00  0.00    +0.000 OA
ATOM     12  H14 UNL     1      -1.399  83.135 105.292  0.00  0.00    +0.000 HD
ENDBRANCH   3  11
TORSDOF 2
ENDMDL
MODEL 2
REMARK VINA RESULT:      -5.7      1.705      4.212
REMARK  Name = .\Carvacrol.pdb
REMARK  5 active torsions:
REMARK  status: ('A' for Active; 'I' for Inactive)
REMARK    1  A    between atoms: C1_1  and  C2_2
REMARK    2  A    between atoms: C2_2  and  C3_3
REMARK    3  A    between atoms: C2_2  and  C4_4
REMARK    4  A    between atoms: C6_6  and  O1_11
REMARK    5  A    between atoms: C7_7  and  C10_10
REMARK                            x       y       z     vdW  Elec       q    Type
REMARK                         _______ _______ _______ _____ _____    ______ ____
ROOT
ATOM      1  C4  UNL     1       0.743  80.446 105.895  0.00  0.00    +0.000 A 
ATOM      2  C5  UNL     1       0.753  80.865 104.553  0.00  0.00    +0.000 A 
ATOM      3  C6  UNL     1       1.388  80.096 103.568  0.00  0.00    +0.000 A 
ATOM      4  C7  UNL     1       2.025  78.892 103.918  0.00  0.00    +0.000 A 
ATOM      5  C8  UNL     1       2.016  78.472 105.257  0.00  0.00    +0.000 A 
ATOM      6  C9  UNL     1       1.381  79.241 106.236  0.00  0.00    +0.000 A 
ATOM      7  C10 UNL     1       2.708  78.063 102.868  0.00  0.00    +0.000 C 
ENDROOT
BRANCH   1   9
ATOM      8  C1  UNL     1       1.053  81.815 107.983  0.00  0.00    +0.000 C 
ATOM      9  C2  UNL     1       0.050  81.291 106.948  0.00  0.00    +0.000 C 
ATOM     10  C3  UNL     1      -0.735  82.441 106.307  0.00  0.00    +0.000 C 
ENDBRANCH   1   9
BRANCH   3  11
ATOM     11  O1  UNL     1       1.390  80.525 102.240  0.00  0.00    +0.000 OA
ATOM     12  H14 UNL     1       2.003  81.267 101.923  0.00  0.00    +0.000 HD
ENDBRANCH   3  11
TORSDOF 2
ENDMDL
MODEL 3
REMARK VINA RESULT:      -5.7      1.581      2.257
REMARK  Name = .\Carvacrol.pdb
REMARK  5 active torsions:
REMARK  status: ('A' for Active; 'I' for Inactive)
REMARK    1  A    between atoms: C1_1  and  C2_2
REMARK    2  A    between atoms: C2_2  and  C3_3
REMARK    3  A    between atoms: C2_2  and  C4_4
REMARK    4  A    between atoms: C6_6  and  O1_11
REMARK    5  A    between atoms: C7_7  and  C10_10
REMARK                            x       y       z     vdW  Elec       q    Type
REMARK                         _______ _______ _______ _____ _____    ______ ____
ROOT
ATOM      1  C4  UNL     1       1.273  79.061 103.824  0.00  0.00    +0.000 A 
ATOM      2  C5  UNL     1       1.097  79.000 105.217  0.00  0.00    +0.000 A 
ATOM      3  C6  UNL     1       0.514  80.069 105.913  0.00  0.00    +0.000 A 
ATOM      4  C7  UNL     1       0.101  81.218 105.216  0.00  0.00    +0.000 A 
ATOM      5  C8  UNL     1       0.277  81.282 103.825  0.00  0.00    +0.000 A 
ATOM      6  C9  UNL     1       0.857  80.214 103.136  0.00  0.00    +0.000 A 
ATOM      7  C10 UNL     1      -0.523  82.368 105.955  0.00  0.00    +0.000 C 
ENDROOT
BRANCH   1   9
ATOM      8  C1  UNL     1       3.414  78.102 102.915  0.00  0.00    +0.000 C 
ATOM      9  C2  UNL     1       1.905  77.895 103.087  0.00  0.00    +0.000 C 
ATOM     10  C3  UNL     1       1.607  76.567 103.794  0.00  0.00    +0.000 C 
ENDBRANCH   1   9
BRANCH   3  11
ATOM     11  O1  UNL     1       0.346  79.994 107.296  0.00  0.00    +0.000 OA
ATOM     12  H14 UNL     1       0.321  79.104 107.780  0.00  0.00    +0.000 HD
ENDBRANCH   3  11
TORSDOF 2
ENDMDL
MODEL 4
REMARK VINA RESULT:      -5.7      2.107      4.677
REMARK  Name = .\Carvacrol.pdb
REMARK  5 active torsions:
REMARK  status: ('A' for Active; 'I' for Inactive)
REMARK    1  A    between atoms: C1_1  and  C2_2
REMARK    2  A    between atoms: C2_2  and  C3_3
REMARK    3  A    between atoms: C2_2  and  C4_4
REMARK    4  A    between atoms: C6_6  and  O1_11
REMARK    5  A    between atoms: C7_7  and  C10_10
REMARK                            x       y       z     vdW  Elec       q    Type
REMARK                         _______ _______ _______ _____ _____    ______ ____
ROOT
ATOM      1  C4  UNL     1       0.677  80.784 105.460  0.00  0.00    +0.000 A 
ATOM      2  C5  UNL     1       0.970  79.455 105.809  0.00  0.00    +0.000 A 
ATOM      3  C6  UNL     1       1.114  78.469 104.821  0.00  0.00    +0.000 A 
ATOM      4  C7  UNL     1       0.963  78.808 103.465  0.00  0.00    +0.000 A 
ATOM      5  C8  UNL     1       0.670  80.134 103.114  0.00  0.00    +0.000 A 
ATOM      6  C9  UNL     1       0.529  81.113 104.100  0.00  0.00    +0.000 A 
ATOM      7  C10 UNL     1       1.115  77.758 102.402  0.00  0.00    +0.000 C 
ENDROOT
BRANCH   1   9
ATOM      8  C1  UNL     1      -0.892  82.421 106.548  0.00  0.00    +0.000 C 
ATOM      9  C2  UNL     1       0.525  81.837 106.541  0.00  0.00    +0.000 C 
ATOM     10  C3  UNL     1       0.898  81.274 107.918  0.00  0.00    +0.000 C 
ENDBRANCH   1   9
BRANCH   3  11
ATOM     11  O1  UNL     1       1.404  77.154 105.184  0.00  0.00    +0.000 OA
ATOM     12  H14 UNL     1       1.671  76.460 104.495  0.00  0.00    +0.000 HD
ENDBRANCH   3  11
TORSDOF 2
ENDMDL
MODEL 5
REMARK VINA RESULT:      -5.6      2.339      4.574
REMARK  Name = .\Carvacrol.pdb
REMARK  5 active torsions:
REMARK  status: ('A' for Active; 'I' for Inactive)
REMARK    1  A    between atoms: C1_1  and  C2_2
REMARK    2  A    between atoms: C2_2  and  C3_3
REMARK    3  A    between atoms: C2_2  and  C4_4
REMARK    4  A    between atoms: C6_6  and  O1_11
REMARK    5  A    between atoms: C7_7  and  C10_10
REMARK                            x       y       z     vdW  Elec       q    Type
REMARK                         _______ _______ _______ _____ _____    ______ ____
ROOT
ATOM      1  C4  UNL     1       1.018  79.577 104.841  0.00  0.00    +0.000 A 
ATOM      2  C5  UNL     1       1.365  79.542 103.479  0.00  0.00    +0.000 A 
ATOM      3  C6  UNL     1       2.041  78.438 102.940  0.00  0.00    +0.000 A 
ATOM      4  C7  UNL     1       2.378  77.350 103.765  0.00  0.00    +0.000 A 
ATOM      5  C8  UNL     1       2.032  77.382 105.125  0.00  0.00    +0.000 A 
ATOM      6  C9  UNL     1       1.359  78.484 105.658  0.00  0.00    +0.000 A 
ATOM      7  C10 UNL     1       3.102  76.164 103.195  0.00  0.00    +0.000 C 
ENDROOT
BRANCH   1   9
ATOM      8  C1  UNL     1       1.066  81.401 106.573  0.00  0.00    +0.000 C 
ATOM      9  C2  UNL     1       0.287  80.780 105.407  0.00  0.00    +0.000 C 
ATOM     10  C3  UNL     1       0.004  81.820 104.316  0.00  0.00    +0.000 C 
ENDBRANCH   1   9
BRANCH   3  11
ATOM     11  O1  UNL     1       2.380  78.418 101.587  0.00  0.00    +0.000 OA
ATOM     12  H14 UNL     1       3.335  78.554 101.276  0.00  0.00    +0.000 HD
ENDBRANCH   3  11
TORSDOF 2
ENDMDL
MODEL 6
REMARK VINA RESULT:      -5.5      2.608      4.971
REMARK  Name = .\Carvacrol.pdb
REMARK  5 active torsions:
REMARK  status: ('A' for Active; 'I' for Inactive)
REMARK    1  A    between atoms: C1_1  and  C2_2
REMARK    2  A    between atoms: C2_2  and  C3_3
REMARK    3  A    between atoms: C2_2  and  C4_4
REMARK    4  A    between atoms: C6_6  and  O1_11
REMARK    5  A    between atoms: C7_7  and  C10_10
REMARK                            x       y       z     vdW  Elec       q    Type
REMARK                         _______ _______ _______ _____ _____    ______ ____
ROOT
ATOM      1  C4  UNL     1       2.225  79.936 104.170  0.00  0.00    +0.000 A 
ATOM      2  C5  UNL     1       1.621  79.335 103.052  0.00  0.00    +0.000 A 
ATOM      3  C6  UNL     1       2.232  78.251 102.405  0.00  0.00    +0.000 A 
ATOM      4  C7  UNL     1       3.460  77.754 102.874  0.00  0.00    +0.000 A 
ATOM      5  C8  UNL     1       4.065  78.353 103.990  0.00  0.00    +0.000 A 
ATOM      6  C9  UNL     1       3.454  79.433 104.632  0.00  0.00    +0.000 A 
ATOM      7  C10 UNL     1       4.120  76.593 102.186  0.00  0.00    +0.000 C 
ENDROOT
BRANCH   1   9
ATOM      8  C1  UNL     1       0.138  81.335 104.307  0.00  0.00    +0.000 C 
ATOM      9  C2  UNL     1       1.551  81.109 104.858  0.00  0.00    +0.000 C 
ATOM     10  C3  UNL     1       1.528  80.918 106.379  0.00  0.00    +0.000 C 
ENDBRANCH   1   9
BRANCH   3  11
ATOM     11  O1  UNL     1       1.620  77.665 101.296  0.00  0.00    +0.000 OA
ATOM     12  H14 UNL     1       2.144  77.440 100.458  0.00  0.00    +0.000 HD
ENDBRANCH   3  11
TORSDOF 2
ENDMDL
MODEL 7
REMARK VINA RESULT:      -5.5      1.533      1.970
REMARK  Name = .\Carvacrol.pdb
REMARK  5 active torsions:
REMARK  status: ('A' for Active; 'I' for Inactive)
REMARK    1  A    between atoms: C1_1  and  C2_2
REMARK    2  A    between atoms: C2_2  and  C3_3
REMARK    3  A    between atoms: C2_2  and  C4_4
REMARK    4  A    between atoms: C6_6  and  O1_11
REMARK    5  A    between atoms: C7_7  and  C10_10
REMARK                            x       y       z     vdW  Elec       q    Type
REMARK                         _______ _______ _______ _____ _____    ______ ____
ROOT
ATOM      1  C4  UNL     1       0.919  80.724 105.511  0.00  0.00    +0.000 A 
ATOM      2  C5  UNL     1      -0.278  81.390 105.826  0.00  0.00    +0.000 A 
ATOM      3  C6  UNL     1      -0.412  82.087 107.036  0.00  0.00    +0.000 A 
ATOM      4  C7  UNL     1       0.657  82.124 107.947  0.00  0.00    +0.000 A 
ATOM      5  C8  UNL     1       1.853  81.459 107.635  0.00  0.00    +0.000 A 
ATOM      6  C9  UNL     1       1.983  80.766 106.429  0.00  0.00    +0.000 A 
ATOM      7  C10 UNL     1       0.520  82.869 109.245  0.00  0.00    +0.000 C 
ENDROOT
BRANCH   1   9
ATOM      8  C1  UNL     1       0.420  80.767 103.045  0.00  0.00    +0.000 C 
ATOM      9  C2  UNL     1       1.047  79.974 104.198  0.00  0.00    +0.000 C 
ATOM     10  C3  UNL     1       2.511  79.628 103.899  0.00  0.00    +0.000 C 
ENDBRANCH   1   9
BRANCH   3  11
ATOM     11  O1  UNL     1      -1.607  82.743 107.335  0.00  0.00    +0.000 OA
ATOM     12  H14 UNL     1      -1.621  83.712 107.633  0.00  0.00    +0.000 HD
ENDBRANCH   3  11
TORSDOF 2
ENDMDL
MODEL 8
REMARK VINA RESULT:      -5.4      2.028      4.847
REMARK  Name = .\Carvacrol.pdb
REMARK  5 active torsions:
REMARK  status: ('A' for Active; 'I' for Inactive)
REMARK    1  A    between atoms: C1_1  and  C2_2
REMARK    2  A    between atoms: C2_2  and  C3_3
REMARK    3  A    between atoms: C2_2  and  C4_4
REMARK    4  A    between atoms: C6_6  and  O1_11
REMARK    5  A    between atoms: C7_7  and  C10_10
REMARK                            x       y       z     vdW  Elec       q    Type
REMARK                         _______ _______ _______ _____ _____    ______ ____
ROOT
ATOM      1  C4  UNL     1      -0.041  81.508 107.292  0.00  0.00    +0.000 A 
ATOM      2  C5  UNL     1       0.714  80.349 107.046  0.00  0.00    +0.000 A 
ATOM      3  C6  UNL     1       1.017  79.956 105.734  0.00  0.00    +0.000 A 
ATOM      4  C7  UNL     1       0.562  80.725 104.648  0.00  0.00    +0.000 A 
ATOM      5  C8  UNL     1      -0.192  81.883 104.891  0.00  0.00    +0.000 A 
ATOM      6  C9  UNL     1      -0.491  82.271 106.199  0.00  0.00    +0.000 A 
ATOM      7  C10 UNL     1       0.882  80.310 103.241  0.00  0.00    +0.000 C 
ENDROOT
BRANCH   1   9
ATOM      8  C1  UNL     1      -0.508  80.693 109.626  0.00  0.00    +0.000 C 
ATOM      9  C2  UNL     1      -0.359  81.919 108.717  0.00  0.00    +0.000 C 
ATOM     10  C3  UNL     1       0.698  82.886 109.264  0.00  0.00    +0.000 C 
ENDBRANCH   1   9
BRANCH   3  11
ATOM     11  O1  UNL     1       1.767  78.802 105.506  0.00  0.00    +0.000 OA
ATOM     12  H14 UNL     1       2.278  78.662 104.642  0.00  0.00    +0.000 HD
ENDBRANCH   3  11
TORSDOF 2
ENDMDL
MODEL 9
REMARK VINA RESULT:      -5.2      2.402      4.829
REMARK  Name = .\Carvacrol.pdb
REMARK  5 active torsions:
REMARK  status: ('A' for Active; 'I' for Inactive)
REMARK    1  A    between atoms: C1_1  and  C2_2
REMARK    2  A    between atoms: C2_2  and  C3_3
REMARK    3  A    between atoms: C2_2  and  C4_4
REMARK    4  A    between atoms: C6_6  and  O1_11
REMARK    5  A    between atoms: C7_7  and  C10_10
REMARK                            x       y       z     vdW  Elec       q    Type
REMARK                         _______ _______ _______ _____ _____    ______ ____
ROOT
ATOM      1  C4  UNL     1       1.385  80.018 104.952  0.00  0.00    +0.000 A 
ATOM      2  C5  UNL     1       2.677  79.620 105.336  0.00  0.00    +0.000 A 
ATOM      3  C6  UNL     1       3.469  78.839 104.482  0.00  0.00    +0.000 A 
ATOM      4  C7  UNL     1       2.972  78.446 103.227  0.00  0.00    +0.000 A 
ATOM      5  C8  UNL     1       1.682  78.842 102.841  0.00  0.00    +0.000 A 
ATOM      6  C9  UNL     1       0.896  79.621 103.695  0.00  0.00    +0.000 A 
ATOM      7  C10 UNL     1       3.815  77.609 102.308  0.00  0.00    +0.000 C 
ENDROOT
BRANCH   1   9
ATOM      8  C1  UNL     1       1.367  81.357 107.082  0.00  0.00    +0.000 C 
ATOM      9  C2  UNL     1       0.542  80.864 105.888  0.00  0.00    +0.000 C 
ATOM     10  C3  UNL     1      -0.106  82.037 105.142  0.00  0.00    +0.000 C 
ENDBRANCH   1   9
BRANCH   3  11
ATOM     11  O1  UNL     1       4.749  78.451 104.878  0.00  0.00    +0.000 OA
ATOM     12  H14 UNL     1       5.001  77.474 104.980  0.00  0.00    +0.000 HD
ENDBRANCH   3  11
TORSDOF 2
ENDMDL
