MODEL 1
REMARK VINA RESULT:      -4.0      0.000      0.000
REMARK  Name = .\Carvacrol.pdb
REMARK  5 active torsions:
REMARK  status: ('A' for Active; 'I' for Inactive)
REMARK    1  A    between atoms: C1_1  and  C2_2
REMARK    2  A    between atoms: C2_2  and  C3_3
REMARK    3  A    between atoms: C2_2  and  C4_4
REMARK    4  A    between atoms: C6_6  and  O1_11
REMARK    5  A    between atoms: C7_7  and  C10_10
REMARK                            x       y       z     vdW  Elec       q    Type
REMARK                         _______ _______ _______ _____ _____    ______ ____
ROOT
ATOM      1  C4  UNL     1       0.682  57.641  59.729  0.00  0.00    +0.000 A 
ATOM      2  C5  UNL     1       1.454  58.434  58.863  0.00  0.00    +0.000 A 
ATOM      3  C6  UNL     1       2.709  58.916  59.261  0.00  0.00    +0.000 A 
ATOM      4  C7  UNL     1       3.206  58.608  60.540  0.00  0.00    +0.000 A 
ATOM      5  C8  UNL     1       2.437  57.817  61.406  0.00  0.00    +0.000 A 
ATOM      6  C9  UNL     1       1.187  57.337  61.005  0.00  0.00    +0.000 A 
ATOM      7  C10 UNL     1       4.549  59.122  60.973  0.00  0.00    +0.000 C 
ENDROOT
BRANCH   1   9
ATOM      8  C1  UNL     1      -0.900  55.685  59.750  0.00  0.00    +0.000 C 
ATOM      9  C2  UNL     1      -0.674  57.127  59.281  0.00  0.00    +0.000 C 
ATOM     10  C3  UNL     1      -1.801  58.048  59.763  0.00  0.00    +0.000 C 
ENDBRANCH   1   9
BRANCH   3  11
ATOM     11  O1  UNL     1       3.463  59.703  58.390  0.00  0.00    +0.000 OA
ATOM     12  H14 UNL     1       4.350  60.107  58.672  0.00  0.00    +0.000 HD
ENDBRANCH   3  11
TORSDOF 2
ENDMDL
MODEL 2
REMARK VINA RESULT:      -4.0      2.323      4.862
REMARK  Name = .\Carvacrol.pdb
REMARK  5 active torsions:
REMARK  status: ('A' for Active; 'I' for Inactive)
REMARK    1  A    between atoms: C1_1  and  C2_2
REMARK    2  A    between atoms: C2_2  and  C3_3
REMARK    3  A    between atoms: C2_2  and  C4_4
REMARK    4  A    between atoms: C6_6  and  O1_11
REMARK    5  A    between atoms: C7_7  and  C10_10
REMARK                            x       y       z     vdW  Elec       q    Type
REMARK                         _______ _______ _______ _____ _____    ______ ____
ROOT
ATOM      1  C4  UNL     1       0.354  57.933  60.039  0.00  0.00    +0.000 A 
ATOM      2  C5  UNL     1       0.425  56.553  59.782  0.00  0.00    +0.000 A 
ATOM      3  C6  UNL     1      -0.719  55.836  59.404  0.00  0.00    +0.000 A 
ATOM      4  C7  UNL     1      -1.953  56.497  59.279  0.00  0.00    +0.000 A 
ATOM      5  C8  UNL     1      -2.026  57.875  59.535  0.00  0.00    +0.000 A 
ATOM      6  C9  UNL     1      -0.884  58.586  59.911  0.00  0.00    +0.000 A 
ATOM      7  C10 UNL     1      -3.183  55.735  58.874  0.00  0.00    +0.000 C 
ENDROOT
BRANCH   1   9
ATOM      8  C1  UNL     1       2.111  58.226  61.816  0.00  0.00    +0.000 C 
ATOM      9  C2  UNL     1       1.602  58.693  60.447  0.00  0.00    +0.000 C 
ATOM     10  C3  UNL     1       2.697  58.574  59.380  0.00  0.00    +0.000 C 
ENDBRANCH   1   9
BRANCH   3  11
ATOM     11  O1  UNL     1      -0.634  54.466  59.153  0.00  0.00    +0.000 OA
ATOM     12  H14 UNL     1      -0.380  53.807  59.880  0.00  0.00    +0.000 HD
ENDBRANCH   3  11
TORSDOF 2
ENDMDL
MODEL 3
REMARK VINA RESULT:      -3.9      1.893      4.077
REMARK  Name = .\Carvacrol.pdb
REMARK  5 active torsions:
REMARK  status: ('A' for Active; 'I' for Inactive)
REMARK    1  A    between atoms: C1_1  and  C2_2
REMARK    2  A    between atoms: C2_2  and  C3_3
REMARK    3  A    between atoms: C2_2  and  C4_4
REMARK    4  A    between atoms: C6_6  and  O1_11
REMARK    5  A    between atoms: C7_7  and  C10_10
REMARK                            x       y       z     vdW  Elec       q    Type
REMARK                         _______ _______ _______ _____ _____    ______ ____
ROOT
ATOM      1  C4  UNL     1       2.364  57.446  59.625  0.00  0.00    +0.000 A 
ATOM      2  C5  UNL     1       1.806  58.666  59.208  0.00  0.00    +0.000 A 
ATOM      3  C6  UNL     1       0.417  58.865  59.235  0.00  0.00    +0.000 A 
ATOM      4  C7  UNL     1      -0.431  57.838  59.684  0.00  0.00    +0.000 A 
ATOM      5  C8  UNL     1       0.124  56.618  60.101  0.00  0.00    +0.000 A 
ATOM      6  C9  UNL     1       1.507  56.424  60.072  0.00  0.00    +0.000 A 
ATOM      7  C10 UNL     1      -1.918  58.044  59.716  0.00  0.00    +0.000 C 
ENDROOT
BRANCH   1   9
ATOM      8  C1  UNL     1       4.355  56.495  60.833  0.00  0.00    +0.000 C 
ATOM      9  C2  UNL     1       3.867  57.247  59.589  0.00  0.00    +0.000 C 
ATOM     10  C3  UNL     1       4.300  56.530  58.304  0.00  0.00    +0.000 C 
ENDBRANCH   1   9
BRANCH   3  11
ATOM     11  O1  UNL     1      -0.122  60.082  58.817  0.00  0.00    +0.000 OA
ATOM     12  H14 UNL     1       0.465  60.832  58.470  0.00  0.00    +0.000 HD
ENDBRANCH   3  11
TORSDOF 2
ENDMDL
MODEL 4
REMARK VINA RESULT:      -3.8      2.107      3.376
REMARK  Name = .\Carvacrol.pdb
REMARK  5 active torsions:
REMARK  status: ('A' for Active; 'I' for Inactive)
REMARK    1  A    between atoms: C1_1  and  C2_2
REMARK    2  A    between atoms: C2_2  and  C3_3
REMARK    3  A    between atoms: C2_2  and  C4_4
REMARK    4  A    between atoms: C6_6  and  O1_11
REMARK    5  A    between atoms: C7_7  and  C10_10
REMARK                            x       y       z     vdW  Elec       q    Type
REMARK                         _______ _______ _______ _____ _____    ______ ____
ROOT
ATOM      1  C4  UNL     1      -1.846  56.612  59.360  0.00  0.00    +0.000 A 
ATOM      2  C5  UNL     1      -0.628  55.917  59.458  0.00  0.00    +0.000 A 
ATOM      3  C6  UNL     1       0.552  56.588  59.812  0.00  0.00    +0.000 A 
ATOM      4  C7  UNL     1       0.524  57.969  60.072  0.00  0.00    +0.000 A 
ATOM      5  C8  UNL     1      -0.691  58.665  59.974  0.00  0.00    +0.000 A 
ATOM      6  C9  UNL     1      -1.864  57.993  59.622  0.00  0.00    +0.000 A 
ATOM      7  C10 UNL     1       1.784  58.694  60.452  0.00  0.00    +0.000 C 
ENDROOT
BRANCH   1   9
ATOM      8  C1  UNL     1      -3.874  56.614  57.871  0.00  0.00    +0.000 C 
ATOM      9  C2  UNL     1      -3.113  55.871  58.975  0.00  0.00    +0.000 C 
ATOM     10  C3  UNL     1      -2.805  54.428  58.559  0.00  0.00    +0.000 C 
ENDBRANCH   1   9
BRANCH   3  11
ATOM     11  O1  UNL     1       1.754  55.885  59.905  0.00  0.00    +0.000 OA
ATOM     12  H14 UNL     1       1.773  54.885  60.073  0.00  0.00    +0.000 HD
ENDBRANCH   3  11
TORSDOF 2
ENDMDL
MODEL 5
REMARK VINA RESULT:      -3.8      2.318      4.616
REMARK  Name = .\Carvacrol.pdb
REMARK  5 active torsions:
REMARK  status: ('A' for Active; 'I' for Inactive)
REMARK    1  A    between atoms: C1_1  and  C2_2
REMARK    2  A    between atoms: C2_2  and  C3_3
REMARK    3  A    between atoms: C2_2  and  C4_4
REMARK    4  A    between atoms: C6_6  and  O1_11
REMARK    5  A    between atoms: C7_7  and  C10_10
REMARK                            x       y       z     vdW  Elec       q    Type
REMARK                         _______ _______ _______ _____ _____    ______ ____
ROOT
ATOM      1  C4  UNL     1       1.560  57.538  60.325  0.00  0.00    +0.000 A 
ATOM      2  C5  UNL     1       0.817  56.348  60.248  0.00  0.00    +0.000 A 
ATOM      3  C6  UNL     1      -0.545  56.374  59.914  0.00  0.00    +0.000 A 
ATOM      4  C7  UNL     1      -1.181  57.600  59.653  0.00  0.00    +0.000 A 
ATOM      5  C8  UNL     1      -0.441  58.790  59.730  0.00  0.00    +0.000 A 
ATOM      6  C9  UNL     1       0.916  58.760  60.062  0.00  0.00    +0.000 A 
ATOM      7  C10 UNL     1      -2.639  57.636  59.295  0.00  0.00    +0.000 C 
ENDROOT
BRANCH   1   9
ATOM      8  C1  UNL     1       3.873  56.961  59.520  0.00  0.00    +0.000 C 
ATOM      9  C2  UNL     1       3.033  57.492  60.688  0.00  0.00    +0.000 C 
ATOM     10  C3  UNL     1       3.533  58.866  61.148  0.00  0.00    +0.000 C 
ENDBRANCH   1   9
BRANCH   3  11
ATOM     11  O1  UNL     1      -1.269  55.183  59.841  0.00  0.00    +0.000 OA
ATOM     12  H14 UNL     1      -0.828  54.283  59.988  0.00  0.00    +0.000 HD
ENDBRANCH   3  11
TORSDOF 2
ENDMDL
MODEL 6
REMARK VINA RESULT:      -3.7      2.241      4.730
REMARK  Name = .\Carvacrol.pdb
REMARK  5 active torsions:
REMARK  status: ('A' for Active; 'I' for Inactive)
REMARK    1  A    between atoms: C1_1  and  C2_2
REMARK    2  A    between atoms: C2_2  and  C3_3
REMARK    3  A    between atoms: C2_2  and  C4_4
REMARK    4  A    between atoms: C6_6  and  O1_11
REMARK    5  A    between atoms: C7_7  and  C10_10
REMARK                            x       y       z     vdW  Elec       q    Type
REMARK                         _______ _______ _______ _____ _____    ______ ____
ROOT
ATOM      1  C4  UNL     1       1.081  58.233  59.474  0.00  0.00    +0.000 A 
ATOM      2  C5  UNL     1      -0.133  58.621  60.067  0.00  0.00    +0.000 A 
ATOM      3  C6  UNL     1      -1.336  57.995  59.710  0.00  0.00    +0.000 A 
ATOM      4  C7  UNL     1      -1.336  56.968  58.750  0.00  0.00    +0.000 A 
ATOM      5  C8  UNL     1      -0.126  56.579  58.156  0.00  0.00    +0.000 A 
ATOM      6  C9  UNL     1       1.071  57.205  58.515  0.00  0.00    +0.000 A 
ATOM      7  C10 UNL     1      -2.621  56.294  58.363  0.00  0.00    +0.000 C 
ENDROOT
BRANCH   1   9
ATOM      8  C1  UNL     1       2.991  58.262  61.112  0.00  0.00    +0.000 C 
ATOM      9  C2  UNL     1       2.374  58.920  59.872  0.00  0.00    +0.000 C 
ATOM     10  C3  UNL     1       3.370  58.943  58.705  0.00  0.00    +0.000 C 
ENDBRANCH   1   9
BRANCH   3  11
ATOM     11  O1  UNL     1      -2.533  58.392  60.307  0.00  0.00    +0.000 OA
ATOM     12  H14 UNL     1      -2.662  58.360  61.312  0.00  0.00    +0.000 HD
ENDBRANCH   3  11
TORSDOF 2
ENDMDL
MODEL 7
REMARK VINA RESULT:      -3.6      2.588      5.097
REMARK  Name = .\Carvacrol.pdb
REMARK  5 active torsions:
REMARK  status: ('A' for Active; 'I' for Inactive)
REMARK    1  A    between atoms: C1_1  and  C2_2
REMARK    2  A    between atoms: C2_2  and  C3_3
REMARK    3  A    between atoms: C2_2  and  C4_4
REMARK    4  A    between atoms: C6_6  and  O1_11
REMARK    5  A    between atoms: C7_7  and  C10_10
REMARK                            x       y       z     vdW  Elec       q    Type
REMARK                         _______ _______ _______ _____ _____    ______ ____
ROOT
ATOM      1  C4  UNL     1       0.070  57.374  59.152  0.00  0.00    +0.000 A 
ATOM      2  C5  UNL     1      -0.207  56.496  58.091  0.00  0.00    +0.000 A 
ATOM      3  C6  UNL     1      -1.530  56.237  57.702  0.00  0.00    +0.000 A 
ATOM      4  C7  UNL     1      -2.595  56.858  58.378  0.00  0.00    +0.000 A 
ATOM      5  C8  UNL     1      -2.320  57.736  59.438  0.00  0.00    +0.000 A 
ATOM      6  C9  UNL     1      -1.001  57.992  59.822  0.00  0.00    +0.000 A 
ATOM      7  C10 UNL     1      -4.014  56.585  57.968  0.00  0.00    +0.000 C 
ENDROOT
BRANCH   1   9
ATOM      8  C1  UNL     1       2.187  58.608  58.581  0.00  0.00    +0.000 C 
ATOM      9  C2  UNL     1       1.507  57.643  59.559  0.00  0.00    +0.000 C 
ATOM     10  C3  UNL     1       1.585  58.169  60.998  0.00  0.00    +0.000 C 
ENDBRANCH   1   9
BRANCH   3  11
ATOM     11  O1  UNL     1      -1.789  55.362  56.647  0.00  0.00    +0.000 OA
ATOM     12  H14 UNL     1      -1.522  55.584  55.695  0.00  0.00    +0.000 HD
ENDBRANCH   3  11
TORSDOF 2
ENDMDL
MODEL 8
REMARK VINA RESULT:      -3.6      1.530      2.117
REMARK  Name = .\Carvacrol.pdb
REMARK  5 active torsions:
REMARK  status: ('A' for Active; 'I' for Inactive)
REMARK    1  A    between atoms: C1_1  and  C2_2
REMARK    2  A    between atoms: C2_2  and  C3_3
REMARK    3  A    between atoms: C2_2  and  C4_4
REMARK    4  A    between atoms: C6_6  and  O1_11
REMARK    5  A    between atoms: C7_7  and  C10_10
REMARK                            x       y       z     vdW  Elec       q    Type
REMARK                         _______ _______ _______ _____ _____    ______ ____
ROOT
ATOM      1  C4  UNL     1       0.144  57.375  59.297  0.00  0.00    +0.000 A 
ATOM      2  C5  UNL     1       0.616  57.346  60.620  0.00  0.00    +0.000 A 
ATOM      3  C6  UNL     1       1.814  57.987  60.967  0.00  0.00    +0.000 A 
ATOM      4  C7  UNL     1       2.556  58.668  59.986  0.00  0.00    +0.000 A 
ATOM      5  C8  UNL     1       2.086  58.698  58.664  0.00  0.00    +0.000 A 
ATOM      6  C9  UNL     1       0.892  58.059  58.322  0.00  0.00    +0.000 A 
ATOM      7  C10 UNL     1       3.840  59.357  60.350  0.00  0.00    +0.000 C 
ENDROOT
BRANCH   1   9
ATOM      8  C1  UNL     1      -1.260  55.315  59.637  0.00  0.00    +0.000 C 
ATOM      9  C2  UNL     1      -1.154  56.676  58.939  0.00  0.00    +0.000 C 
ATOM     10  C3  UNL     1      -2.366  57.558  59.263  0.00  0.00    +0.000 C 
ENDBRANCH   1   9
BRANCH   3  11
ATOM     11  O1  UNL     1       2.271  57.949  62.285  0.00  0.00    +0.000 OA
ATOM     12  H14 UNL     1       2.702  57.118  62.674  0.00  0.00    +0.000 HD
ENDBRANCH   3  11
TORSDOF 2
ENDMDL
MODEL 9
REMARK VINA RESULT:      -3.5      1.243      1.357
REMARK  Name = .\Carvacrol.pdb
REMARK  5 active torsions:
REMARK  status: ('A' for Active; 'I' for Inactive)
REMARK    1  A    between atoms: C1_1  and  C2_2
REMARK    2  A    between atoms: C2_2  and  C3_3
REMARK    3  A    between atoms: C2_2  and  C4_4
REMARK    4  A    between atoms: C6_6  and  O1_11
REMARK    5  A    between atoms: C7_7  and  C10_10
REMARK                            x       y       z     vdW  Elec       q    Type
REMARK                         _______ _______ _______ _____ _____    ______ ____
ROOT
ATOM      1  C4  UNL     1       0.431  57.757  59.092  0.00  0.00    +0.000 A 
ATOM      2  C5  UNL     1       1.242  57.631  57.951  0.00  0.00    +0.000 A 
ATOM      3  C6  UNL     1       2.547  58.144  57.941  0.00  0.00    +0.000 A 
ATOM      4  C7  UNL     1       3.057  58.791  59.080  0.00  0.00    +0.000 A 
ATOM      5  C8  UNL     1       2.249  58.918  60.220  0.00  0.00    +0.000 A 
ATOM      6  C9  UNL     1       0.949  58.406  60.227  0.00  0.00    +0.000 A 
ATOM      7  C10 UNL     1       4.454  59.343  59.076  0.00  0.00    +0.000 C 
ENDROOT
BRANCH   1   9
ATOM      8  C1  UNL     1      -1.018  55.790  59.696  0.00  0.00    +0.000 C 
ATOM      9  C2  UNL     1      -0.979  57.197  59.087  0.00  0.00    +0.000 C 
ATOM     10  C3  UNL     1      -1.952  58.138  59.807  0.00  0.00    +0.000 C 
ENDBRANCH   1   9
BRANCH   3  11
ATOM     11  O1  UNL     1       3.340  58.012  56.800  0.00  0.00    +0.000 OA
ATOM     12  H14 UNL     1       3.136  57.320  56.089  0.00  0.00    +0.000 HD
ENDBRANCH   3  11
TORSDOF 2
ENDMDL
