MODEL 1
REMARK VINA RESULT:      -3.6      0.000      0.000
REMARK  Name = .\Carvacrol.pdb
REMARK  5 active torsions:
REMARK  status: ('A' for Active; 'I' for Inactive)
REMARK    1  A    between atoms: C1_1  and  C2_2
REMARK    2  A    between atoms: C2_2  and  C3_3
REMARK    3  A    between atoms: C2_2  and  C4_4
REMARK    4  A    between atoms: C6_6  and  O1_11
REMARK    5  A    between atoms: C7_7  and  C10_10
REMARK                            x       y       z     vdW  Elec       q    Type
REMARK                         _______ _______ _______ _____ _____    ______ ____
ROOT
ATOM      1  C4  UNL     1     -18.417  70.747  49.073  0.00  0.00    +0.000 A 
ATOM      2  C5  UNL     1     -17.903  72.055  49.111  0.00  0.00    +0.000 A 
ATOM      3  C6  UNL     1     -16.885  72.451  48.231  0.00  0.00    +0.000 A 
ATOM      4  C7  UNL     1     -16.368  71.535  47.298  0.00  0.00    +0.000 A 
ATOM      5  C8  UNL     1     -16.879  70.229  47.258  0.00  0.00    +0.000 A 
ATOM      6  C9  UNL     1     -17.894  69.838  48.136  0.00  0.00    +0.000 A 
ATOM      7  C10 UNL     1     -15.278  71.951  46.353  0.00  0.00    +0.000 C 
ENDROOT
BRANCH   1   9
ATOM      8  C1  UNL     1     -19.202  68.988  50.691  0.00  0.00    +0.000 C 
ATOM      9  C2  UNL     1     -19.518  70.336  50.032  0.00  0.00    +0.000 C 
ATOM     10  C3  UNL     1     -19.767  71.421  51.087  0.00  0.00    +0.000 C 
ENDBRANCH   1   9
BRANCH   3  11
ATOM     11  O1  UNL     1     -16.384  73.752  48.282  0.00  0.00    +0.000 OA
ATOM     12  H14 UNL     1     -15.605  74.044  47.704  0.00  0.00    +0.000 HD
ENDBRANCH   3  11
TORSDOF 2
ENDMDL
MODEL 2
REMARK VINA RESULT:      -3.4      1.558      2.066
REMARK  Name = .\Carvacrol.pdb
REMARK  5 active torsions:
REMARK  status: ('A' for Active; 'I' for Inactive)
REMARK    1  A    between atoms: C1_1  and  C2_2
REMARK    2  A    between atoms: C2_2  and  C3_3
REMARK    3  A    between atoms: C2_2  and  C4_4
REMARK    4  A    between atoms: C6_6  and  O1_11
REMARK    5  A    between atoms: C7_7  and  C10_10
REMARK                            x       y       z     vdW  Elec       q    Type
REMARK                         _______ _______ _______ _____ _____    ______ ____
ROOT
ATOM      1  C4  UNL     1     -17.613  71.094  48.758  0.00  0.00    +0.000 A 
ATOM      2  C5  UNL     1     -16.530  71.772  48.174  0.00  0.00    +0.000 A 
ATOM      3  C6  UNL     1     -16.248  71.629  46.807  0.00  0.00    +0.000 A 
ATOM      4  C7  UNL     1     -17.054  70.801  46.007  0.00  0.00    +0.000 A 
ATOM      5  C8  UNL     1     -18.137  70.123  46.588  0.00  0.00    +0.000 A 
ATOM      6  C9  UNL     1     -18.414  70.268  47.950  0.00  0.00    +0.000 A 
ATOM      7  C10 UNL     1     -16.758  70.642  44.543  0.00  0.00    +0.000 C 
ENDROOT
BRANCH   1   9
ATOM      8  C1  UNL     1     -18.483  72.649  50.535  0.00  0.00    +0.000 C 
ATOM      9  C2  UNL     1     -17.904  71.260  50.238  0.00  0.00    +0.000 C 
ATOM     10  C3  UNL     1     -18.834  70.153  50.747  0.00  0.00    +0.000 C 
ENDBRANCH   1   9
BRANCH   3  11
ATOM     11  O1  UNL     1     -15.168  72.308  46.242  0.00  0.00    +0.000 OA
ATOM     12  H14 UNL     1     -14.210  72.064  46.468  0.00  0.00    +0.000 HD
ENDBRANCH   3  11
TORSDOF 2
ENDMDL
MODEL 3
REMARK VINA RESULT:      -3.2      1.519      4.246
REMARK  Name = .\Carvacrol.pdb
REMARK  5 active torsions:
REMARK  status: ('A' for Active; 'I' for Inactive)
REMARK    1  A    between atoms: C1_1  and  C2_2
REMARK    2  A    between atoms: C2_2  and  C3_3
REMARK    3  A    between atoms: C2_2  and  C4_4
REMARK    4  A    between atoms: C6_6  and  O1_11
REMARK    5  A    between atoms: C7_7  and  C10_10
REMARK                            x       y       z     vdW  Elec       q    Type
REMARK                         _______ _______ _______ _____ _____    ______ ____
ROOT
ATOM      1  C4  UNL     1     -17.093  70.941  47.467  0.00  0.00    +0.000 A 
ATOM      2  C5  UNL     1     -17.170  71.713  48.639  0.00  0.00    +0.000 A 
ATOM      3  C6  UNL     1     -17.723  71.180  49.812  0.00  0.00    +0.000 A 
ATOM      4  C7  UNL     1     -18.208  69.860  49.824  0.00  0.00    +0.000 A 
ATOM      5  C8  UNL     1     -18.131  69.087  48.655  0.00  0.00    +0.000 A 
ATOM      6  C9  UNL     1     -17.579  69.621  47.488  0.00  0.00    +0.000 A 
ATOM      7  C10 UNL     1     -18.802  69.283  51.077  0.00  0.00    +0.000 C 
ENDROOT
BRANCH   1   9
ATOM      8  C1  UNL     1     -14.980  71.740  46.360  0.00  0.00    +0.000 C 
ATOM      9  C2  UNL     1     -16.491  71.533  46.206  0.00  0.00    +0.000 C 
ATOM     10  C3  UNL     1     -16.809  70.667  44.982  0.00  0.00    +0.000 C 
ENDBRANCH   1   9
BRANCH   3  11
ATOM     11  O1  UNL     1     -17.794  71.959  50.967  0.00  0.00    +0.000 OA
ATOM     12  H14 UNL     1     -18.650  72.033  51.506  0.00  0.00    +0.000 HD
ENDBRANCH   3  11
TORSDOF 2
ENDMDL
MODEL 4
REMARK VINA RESULT:      -3.2      1.633      1.791
REMARK  Name = .\Carvacrol.pdb
REMARK  5 active torsions:
REMARK  status: ('A' for Active; 'I' for Inactive)
REMARK    1  A    between atoms: C1_1  and  C2_2
REMARK    2  A    between atoms: C2_2  and  C3_3
REMARK    3  A    between atoms: C2_2  and  C4_4
REMARK    4  A    between atoms: C6_6  and  O1_11
REMARK    5  A    between atoms: C7_7  and  C10_10
REMARK                            x       y       z     vdW  Elec       q    Type
REMARK                         _______ _______ _______ _____ _____    ______ ____
ROOT
ATOM      1  C4  UNL     1     -18.469  70.570  48.745  0.00  0.00    +0.000 A 
ATOM      2  C5  UNL     1     -17.140  70.946  48.487  0.00  0.00    +0.000 A 
ATOM      3  C6  UNL     1     -16.641  70.962  47.176  0.00  0.00    +0.000 A 
ATOM      4  C7  UNL     1     -17.474  70.597  46.104  0.00  0.00    +0.000 A 
ATOM      5  C8  UNL     1     -18.802  70.221  46.359  0.00  0.00    +0.000 A 
ATOM      6  C9  UNL     1     -19.295  70.207  47.666  0.00  0.00    +0.000 A 
ATOM      7  C10 UNL     1     -16.947  70.611  44.698  0.00  0.00    +0.000 C 
ENDROOT
BRANCH   1   9
ATOM      8  C1  UNL     1     -19.114  69.127  50.702  0.00  0.00    +0.000 C 
ATOM      9  C2  UNL     1     -18.992  70.559  50.170  0.00  0.00    +0.000 C 
ATOM     10  C3  UNL     1     -18.114  71.417  51.088  0.00  0.00    +0.000 C 
ENDBRANCH   1   9
BRANCH   3  11
ATOM     11  O1  UNL     1     -15.319  71.337  46.936  0.00  0.00    +0.000 OA
ATOM     12  H14 UNL     1     -15.053  71.835  46.094  0.00  0.00    +0.000 HD
ENDBRANCH   3  11
TORSDOF 2
ENDMDL
MODEL 5
REMARK VINA RESULT:      -3.1      1.438      3.570
REMARK  Name = .\Carvacrol.pdb
REMARK  5 active torsions:
REMARK  status: ('A' for Active; 'I' for Inactive)
REMARK    1  A    between atoms: C1_1  and  C2_2
REMARK    2  A    between atoms: C2_2  and  C3_3
REMARK    3  A    between atoms: C2_2  and  C4_4
REMARK    4  A    between atoms: C6_6  and  O1_11
REMARK    5  A    between atoms: C7_7  and  C10_10
REMARK                            x       y       z     vdW  Elec       q    Type
REMARK                         _______ _______ _______ _____ _____    ______ ____
ROOT
ATOM      1  C4  UNL     1     -17.393  71.127  48.235  0.00  0.00    +0.000 A 
ATOM      2  C5  UNL     1     -16.976  72.462  48.097  0.00  0.00    +0.000 A 
ATOM      3  C6  UNL     1     -17.381  73.438  49.019  0.00  0.00    +0.000 A 
ATOM      4  C7  UNL     1     -18.212  73.084  50.096  0.00  0.00    +0.000 A 
ATOM      5  C8  UNL     1     -18.630  71.752  50.236  0.00  0.00    +0.000 A 
ATOM      6  C9  UNL     1     -18.225  70.783  49.316  0.00  0.00    +0.000 A 
ATOM      7  C10 UNL     1     -18.650  74.124  51.088  0.00  0.00    +0.000 C 
ENDROOT
BRANCH   1   9
ATOM      8  C1  UNL     1     -17.776  68.801  47.357  0.00  0.00    +0.000 C 
ATOM      9  C2  UNL     1     -16.947  70.084  47.228  0.00  0.00    +0.000 C 
ATOM     10  C3  UNL     1     -17.001  70.636  45.798  0.00  0.00    +0.000 C 
ENDBRANCH   1   9
BRANCH   3  11
ATOM     11  O1  UNL     1     -16.959  74.759  48.868  0.00  0.00    +0.000 OA
ATOM     12  H14 UNL     1     -17.159  75.464  49.568  0.00  0.00    +0.000 HD
ENDBRANCH   3  11
TORSDOF 2
ENDMDL
MODEL 6
REMARK VINA RESULT:      -3.1      2.613      4.754
REMARK  Name = .\Carvacrol.pdb
REMARK  5 active torsions:
REMARK  status: ('A' for Active; 'I' for Inactive)
REMARK    1  A    between atoms: C1_1  and  C2_2
REMARK    2  A    between atoms: C2_2  and  C3_3
REMARK    3  A    between atoms: C2_2  and  C4_4
REMARK    4  A    between atoms: C6_6  and  O1_11
REMARK    5  A    between atoms: C7_7  and  C10_10
REMARK                            x       y       z     vdW  Elec       q    Type
REMARK                         _______ _______ _______ _____ _____    ______ ____
ROOT
ATOM      1  C4  UNL     1     -17.636  70.005  45.079  0.00  0.00    +0.000 A 
ATOM      2  C5  UNL     1     -16.728  70.997  45.484  0.00  0.00    +0.000 A 
ATOM      3  C6  UNL     1     -16.611  71.352  46.836  0.00  0.00    +0.000 A 
ATOM      4  C7  UNL     1     -17.409  70.713  47.801  0.00  0.00    +0.000 A 
ATOM      5  C8  UNL     1     -18.317  69.721  47.398  0.00  0.00    +0.000 A 
ATOM      6  C9  UNL     1     -18.430  69.370  46.051  0.00  0.00    +0.000 A 
ATOM      7  C10 UNL     1     -17.290  71.088  49.251  0.00  0.00    +0.000 C 
ENDROOT
BRANCH   1   9
ATOM      8  C1  UNL     1     -19.003  70.250  42.981  0.00  0.00    +0.000 C 
ATOM      9  C2  UNL     1     -17.749  69.633  43.612  0.00  0.00    +0.000 C 
ATOM     10  C3  UNL     1     -16.487  70.035  42.840  0.00  0.00    +0.000 C 
ENDBRANCH   1   9
BRANCH   3  11
ATOM     11  O1  UNL     1     -15.706  72.340  47.224  0.00  0.00    +0.000 OA
ATOM     12  H14 UNL     1     -14.983  72.673  46.596  0.00  0.00    +0.000 HD
ENDBRANCH   3  11
TORSDOF 2
ENDMDL
MODEL 7
REMARK VINA RESULT:      -2.9      2.017      2.670
REMARK  Name = .\Carvacrol.pdb
REMARK  5 active torsions:
REMARK  status: ('A' for Active; 'I' for Inactive)
REMARK    1  A    between atoms: C1_1  and  C2_2
REMARK    2  A    between atoms: C2_2  and  C3_3
REMARK    3  A    between atoms: C2_2  and  C4_4
REMARK    4  A    between atoms: C6_6  and  O1_11
REMARK    5  A    between atoms: C7_7  and  C10_10
REMARK                            x       y       z     vdW  Elec       q    Type
REMARK                         _______ _______ _______ _____ _____    ______ ____
ROOT
ATOM      1  C4  UNL     1     -17.636  71.051  49.245  0.00  0.00    +0.000 A 
ATOM      2  C5  UNL     1     -17.958  69.936  48.453  0.00  0.00    +0.000 A 
ATOM      3  C6  UNL     1     -17.568  69.877  47.107  0.00  0.00    +0.000 A 
ATOM      4  C7  UNL     1     -16.849  70.941  46.537  0.00  0.00    +0.000 A 
ATOM      5  C8  UNL     1     -16.526  72.056  47.326  0.00  0.00    +0.000 A 
ATOM      6  C9  UNL     1     -16.915  72.111  48.666  0.00  0.00    +0.000 A 
ATOM      7  C10 UNL     1     -16.429  70.885  45.096  0.00  0.00    +0.000 C 
ENDROOT
BRANCH   1   9
ATOM      8  C1  UNL     1     -18.574  72.493  51.081  0.00  0.00    +0.000 C 
ATOM      9  C2  UNL     1     -18.065  71.098  50.700  0.00  0.00    +0.000 C 
ATOM     10  C3  UNL     1     -19.117  70.024  51.002  0.00  0.00    +0.000 C 
ENDBRANCH   1   9
BRANCH   3  11
ATOM     11  O1  UNL     1     -17.896  68.763  46.333  0.00  0.00    +0.000 OA
ATOM     12  H14 UNL     1     -17.333  67.920  46.349  0.00  0.00    +0.000 HD
ENDBRANCH   3  11
TORSDOF 2
ENDMDL
MODEL 8
REMARK VINA RESULT:      -2.9      2.430      3.300
REMARK  Name = .\Carvacrol.pdb
REMARK  5 active torsions:
REMARK  status: ('A' for Active; 'I' for Inactive)
REMARK    1  A    between atoms: C1_1  and  C2_2
REMARK    2  A    between atoms: C2_2  and  C3_3
REMARK    3  A    between atoms: C2_2  and  C4_4
REMARK    4  A    between atoms: C6_6  and  O1_11
REMARK    5  A    between atoms: C7_7  and  C10_10
REMARK                            x       y       z     vdW  Elec       q    Type
REMARK                         _______ _______ _______ _____ _____    ______ ____
ROOT
ATOM      1  C4  UNL     1     -17.256  71.282  47.749  0.00  0.00    +0.000 A 
ATOM      2  C5  UNL     1     -18.308  70.628  47.085  0.00  0.00    +0.000 A 
ATOM      3  C6  UNL     1     -18.206  70.305  45.724  0.00  0.00    +0.000 A 
ATOM      4  C7  UNL     1     -17.042  70.638  45.009  0.00  0.00    +0.000 A 
ATOM      5  C8  UNL     1     -15.990  71.291  45.670  0.00  0.00    +0.000 A 
ATOM      6  C9  UNL     1     -16.095  71.610  47.026  0.00  0.00    +0.000 A 
ATOM      7  C10 UNL     1     -16.925  70.296  43.551  0.00  0.00    +0.000 C 
ENDROOT
BRANCH   1   9
ATOM      8  C1  UNL     1     -18.118  72.954  49.419  0.00  0.00    +0.000 C 
ATOM      9  C2  UNL     1     -17.383  71.623  49.222  0.00  0.00    +0.000 C 
ATOM     10  C3  UNL     1     -18.072  70.491  49.994  0.00  0.00    +0.000 C 
ENDBRANCH   1   9
BRANCH   3  11
ATOM     11  O1  UNL     1     -19.259  69.657  45.079  0.00  0.00    +0.000 OA
ATOM     12  H14 UNL     1     -20.090  70.157  44.783  0.00  0.00    +0.000 HD
ENDBRANCH   3  11
TORSDOF 2
ENDMDL
MODEL 9
REMARK VINA RESULT:      -2.8      2.991      5.120
REMARK  Name = .\Carvacrol.pdb
REMARK  5 active torsions:
REMARK  status: ('A' for Active; 'I' for Inactive)
REMARK    1  A    between atoms: C1_1  and  C2_2
REMARK    2  A    between atoms: C2_2  and  C3_3
REMARK    3  A    between atoms: C2_2  and  C4_4
REMARK    4  A    between atoms: C6_6  and  O1_11
REMARK    5  A    between atoms: C7_7  and  C10_10
REMARK                            x       y       z     vdW  Elec       q    Type
REMARK                         _______ _______ _______ _____ _____    ______ ____
ROOT
ATOM      1  C4  UNL     1     -17.573  70.351  44.953  0.00  0.00    +0.000 A 
ATOM      2  C5  UNL     1     -18.591  69.864  45.791  0.00  0.00    +0.000 A 
ATOM      3  C6  UNL     1     -18.541  70.075  47.177  0.00  0.00    +0.000 A 
ATOM      4  C7  UNL     1     -17.464  70.781  47.741  0.00  0.00    +0.000 A 
ATOM      5  C8  UNL     1     -16.446  71.268  46.906  0.00  0.00    +0.000 A 
ATOM      6  C9  UNL     1     -16.500  71.056  45.526  0.00  0.00    +0.000 A 
ATOM      7  C10 UNL     1     -17.403  71.011  49.224  0.00  0.00    +0.000 C 
ENDROOT
BRANCH   1   9
ATOM      8  C1  UNL     1     -16.240  70.053  42.840  0.00  0.00    +0.000 C 
ATOM      9  C2  UNL     1     -17.643  70.114  43.456  0.00  0.00    +0.000 C 
ATOM     10  C3  UNL     1     -18.443  68.846  43.134  0.00  0.00    +0.000 C 
ENDBRANCH   1   9
BRANCH   3  11
ATOM     11  O1  UNL     1     -19.558  69.585  47.995  0.00  0.00    +0.000 OA
ATOM     12  H14 UNL     1     -20.441  69.265  47.612  0.00  0.00    +0.000 HD
ENDBRANCH   3  11
TORSDOF 2
ENDMDL
