MODEL 1
REMARK VINA RESULT:       1.4      0.000      0.000
REMARK  Name = .\Carvone.pdb
REMARK  3 active torsions:
REMARK  status: ('A' for Active; 'I' for Inactive)
REMARK    1  A    between atoms: C1_1  and  C2_2
REMARK    2  A    between atoms: C7_8  and  C8_9
REMARK    3  A    between atoms: C7_8  and  C9_10
REMARK                            x       y       z     vdW  Elec       q    Type
REMARK                         _______ _______ _______ _____ _____    ______ ____
ROOT
ATOM      1  C1  UNL     1      -7.448  54.079  -5.418  0.00  0.00    +0.000 C 
ATOM      2  C2  UNL     1      -6.178  53.343  -5.068  0.00  0.00    +0.000 C 
ATOM      3  C3  UNL     1      -5.547  53.706  -3.940  0.00  0.00    +0.000 C 
ATOM      4  C4  UNL     1      -4.308  53.051  -3.517  0.00  0.00    +0.000 C 
ATOM      5  O1  UNL     1      -3.734  53.408  -2.454  0.00  0.00    +0.000 OA
ATOM      6  C5  UNL     1      -3.741  51.981  -4.332  0.00  0.00    +0.000 C 
ATOM      7  C6  UNL     1      -4.344  51.597  -5.458  0.00  0.00    +0.000 C 
ATOM      8  C7  UNL     1      -5.635  52.222  -5.975  0.00  0.00    +0.000 C 
ATOM      9  C8  UNL     1      -5.338  52.792  -7.376  0.00  0.00    +0.000 C 
ATOM     10  C9  UNL     1      -6.679  51.094  -6.081  0.00  0.00    +0.000 C 
ENDROOT
TORSDOF 0
ENDMDL
MODEL 2
REMARK VINA RESULT:       1.9      1.081      2.598
REMARK  Name = .\Carvone.pdb
REMARK  3 active torsions:
REMARK  status: ('A' for Active; 'I' for Inactive)
REMARK    1  A    between atoms: C1_1  and  C2_2
REMARK    2  A    between atoms: C7_8  and  C8_9
REMARK    3  A    between atoms: C7_8  and  C9_10
REMARK                            x       y       z     vdW  Elec       q    Type
REMARK                         _______ _______ _______ _____ _____    ______ ____
ROOT
ATOM      1  C1  UNL     1      -6.258  51.095  -6.596  0.00  0.00    +0.000 C 
ATOM      2  C2  UNL     1      -5.612  51.939  -5.524  0.00  0.00    +0.000 C 
ATOM      3  C3  UNL     1      -4.377  51.593  -5.129  0.00  0.00    +0.000 C 
ATOM      4  C4  UNL     1      -3.669  52.351  -4.095  0.00  0.00    +0.000 C 
ATOM      5  O1  UNL     1      -2.511  52.009  -3.740  0.00  0.00    +0.000 OA
ATOM      6  C5  UNL     1      -4.314  53.507  -3.477  0.00  0.00    +0.000 C 
ATOM      7  C6  UNL     1      -5.539  53.876  -3.849  0.00  0.00    +0.000 C 
ATOM      8  C7  UNL     1      -6.350  53.147  -4.914  0.00  0.00    +0.000 C 
ATOM      9  C8  UNL     1      -7.657  52.671  -4.250  0.00  0.00    +0.000 C 
ATOM     10  C9  UNL     1      -6.671  54.168  -6.023  0.00  0.00    +0.000 C 
ENDROOT
TORSDOF 0
ENDMDL
MODEL 3
REMARK VINA RESULT:       2.5      2.014      3.333
REMARK  Name = .\Carvone.pdb
REMARK  3 active torsions:
REMARK  status: ('A' for Active; 'I' for Inactive)
REMARK    1  A    between atoms: C1_1  and  C2_2
REMARK    2  A    between atoms: C7_8  and  C8_9
REMARK    3  A    between atoms: C7_8  and  C9_10
REMARK                            x       y       z     vdW  Elec       q    Type
REMARK                         _______ _______ _______ _____ _____    ______ ____
ROOT
ATOM      1  C1  UNL     1      -4.279  53.954  -2.816  0.00  0.00    +0.000 C 
ATOM      2  C2  UNL     1      -5.001  53.368  -4.005  0.00  0.00    +0.000 C 
ATOM      3  C3  UNL     1      -5.874  54.159  -4.647  0.00  0.00    +0.000 C 
ATOM      4  C4  UNL     1      -6.622  53.680  -5.811  0.00  0.00    +0.000 C 
ATOM      5  O1  UNL     1      -7.436  54.441  -6.398  0.00  0.00    +0.000 OA
ATOM      6  C5  UNL     1      -6.419  52.315  -6.288  0.00  0.00    +0.000 C 
ATOM      7  C6  UNL     1      -5.559  51.505  -5.672  0.00  0.00    +0.000 C 
ATOM      8  C7  UNL     1      -4.738  51.917  -4.455  0.00  0.00    +0.000 C 
ATOM      9  C8  UNL     1      -5.098  50.949  -3.311  0.00  0.00    +0.000 C 
ATOM     10  C9  UNL     1      -3.252  51.754  -4.828  0.00  0.00    +0.000 C 
ENDROOT
TORSDOF 0
ENDMDL
MODEL 4
REMARK VINA RESULT:       3.0      2.417      3.493
REMARK  Name = .\Carvone.pdb
REMARK  3 active torsions:
REMARK  status: ('A' for Active; 'I' for Inactive)
REMARK    1  A    between atoms: C1_1  and  C2_2
REMARK    2  A    between atoms: C7_8  and  C8_9
REMARK    3  A    between atoms: C7_8  and  C9_10
REMARK                            x       y       z     vdW  Elec       q    Type
REMARK                         _______ _______ _______ _____ _____    ______ ____
ROOT
ATOM      1  C1  UNL     1      -7.334  53.131  -3.998  0.00  0.00    +0.000 C 
ATOM      2  C2  UNL     1      -6.725  53.214  -5.376  0.00  0.00    +0.000 C 
ATOM      3  C3  UNL     1      -7.156  54.198  -6.181  0.00  0.00    +0.000 C 
ATOM      4  C4  UNL     1      -6.625  54.359  -7.536  0.00  0.00    +0.000 C 
ATOM      5  O1  UNL     1      -7.044  55.290  -8.273  0.00  0.00    +0.000 OA
ATOM      6  C5  UNL     1      -5.607  53.436  -8.029  0.00  0.00    +0.000 C 
ATOM      7  C6  UNL     1      -5.158  52.449  -7.253  0.00  0.00    +0.000 C 
ATOM      8  C7  UNL     1      -5.653  52.205  -5.832  0.00  0.00    +0.000 C 
ATOM      9  C8  UNL     1      -6.236  50.779  -5.789  0.00  0.00    +0.000 C 
ATOM     10  C9  UNL     1      -4.430  52.296  -4.899  0.00  0.00    +0.000 C 
ENDROOT
TORSDOF 0
ENDMDL
MODEL 5
REMARK VINA RESULT:       3.8      2.263      3.832
REMARK  Name = .\Carvone.pdb
REMARK  3 active torsions:
REMARK  status: ('A' for Active; 'I' for Inactive)
REMARK    1  A    between atoms: C1_1  and  C2_2
REMARK    2  A    between atoms: C7_8  and  C8_9
REMARK    3  A    between atoms: C7_8  and  C9_10
REMARK                            x       y       z     vdW  Elec       q    Type
REMARK                         _______ _______ _______ _____ _____    ______ ____
ROOT
ATOM      1  C1  UNL     1      -3.155  51.511  -4.761  0.00  0.00    +0.000 C 
ATOM      2  C2  UNL     1      -4.398  52.236  -5.216  0.00  0.00    +0.000 C 
ATOM      3  C3  UNL     1      -4.562  52.407  -6.537  0.00  0.00    +0.000 C 
ATOM      4  C4  UNL     1      -5.736  53.097  -7.074  0.00  0.00    +0.000 C 
ATOM      5  O1  UNL     1      -5.869  53.246  -8.318  0.00  0.00    +0.000 OA
ATOM      6  C5  UNL     1      -6.753  53.613  -6.162  0.00  0.00    +0.000 C 
ATOM      7  C6  UNL     1      -6.619  53.458  -4.844  0.00  0.00    +0.000 C 
ATOM      8  C7  UNL     1      -5.432  52.754  -4.197  0.00  0.00    +0.000 C 
ATOM      9  C8  UNL     1      -4.758  53.768  -3.251  0.00  0.00    +0.000 C 
ATOM     10  C9  UNL     1      -5.990  51.571  -3.381  0.00  0.00    +0.000 C 
ENDROOT
TORSDOF 0
ENDMDL
MODEL 6
REMARK VINA RESULT:       4.0      1.154      2.413
REMARK  Name = .\Carvone.pdb
REMARK  3 active torsions:
REMARK  status: ('A' for Active; 'I' for Inactive)
REMARK    1  A    between atoms: C1_1  and  C2_2
REMARK    2  A    between atoms: C7_8  and  C8_9
REMARK    3  A    between atoms: C7_8  and  C9_10
REMARK                            x       y       z     vdW  Elec       q    Type
REMARK                         _______ _______ _______ _____ _____    ______ ____
ROOT
ATOM      1  C1  UNL     1      -5.122  52.463  -7.961  0.00  0.00    +0.000 C 
ATOM      2  C2  UNL     1      -5.068  52.344  -6.457  0.00  0.00    +0.000 C 
ATOM      3  C3  UNL     1      -3.857  52.221  -5.892  0.00  0.00    +0.000 C 
ATOM      4  C4  UNL     1      -3.703  52.100  -4.441  0.00  0.00    +0.000 C 
ATOM      5  O1  UNL     1      -2.556  51.985  -3.934  0.00  0.00    +0.000 OA
ATOM      6  C5  UNL     1      -4.886  52.113  -3.585  0.00  0.00    +0.000 C 
ATOM      7  C6  UNL     1      -6.102  52.235  -4.116  0.00  0.00    +0.000 C 
ATOM      8  C7  UNL     1      -6.358  52.366  -5.613  0.00  0.00    +0.000 C 
ATOM      9  C8  UNL     1      -7.264  51.190  -6.028  0.00  0.00    +0.000 C 
ATOM     10  C9  UNL     1      -7.098  53.699  -5.837  0.00  0.00    +0.000 C 
ENDROOT
TORSDOF 0
ENDMDL
MODEL 7
REMARK VINA RESULT:       4.1      1.461      2.398
REMARK  Name = .\Carvone.pdb
REMARK  3 active torsions:
REMARK  status: ('A' for Active; 'I' for Inactive)
REMARK    1  A    between atoms: C1_1  and  C2_2
REMARK    2  A    between atoms: C7_8  and  C8_9
REMARK    3  A    between atoms: C7_8  and  C9_10
REMARK                            x       y       z     vdW  Elec       q    Type
REMARK                         _______ _______ _______ _____ _____    ______ ____
ROOT
ATOM      1  C1  UNL     1      -5.261  54.632  -3.100  0.00  0.00    +0.000 C 
ATOM      2  C2  UNL     1      -5.178  53.467  -4.056  0.00  0.00    +0.000 C 
ATOM      3  C3  UNL     1      -4.019  52.791  -4.105  0.00  0.00    +0.000 C 
ATOM      4  C4  UNL     1      -3.843  51.647  -5.001  0.00  0.00    +0.000 C 
ATOM      5  O1  UNL     1      -2.747  51.028  -5.029  0.00  0.00    +0.000 OA
ATOM      6  C5  UNL     1      -4.945  51.226  -5.861  0.00  0.00    +0.000 C 
ATOM      7  C6  UNL     1      -6.109  51.876  -5.836  0.00  0.00    +0.000 C 
ATOM      8  C7  UNL     1      -6.382  53.077  -4.937  0.00  0.00    +0.000 C 
ATOM      9  C8  UNL     1      -6.755  54.259  -5.852  0.00  0.00    +0.000 C 
ATOM     10  C9  UNL     1      -7.581  52.713  -4.039  0.00  0.00    +0.000 C 
ENDROOT
TORSDOF 0
ENDMDL
