MODEL 1
REMARK VINA RESULT:      -3.1      0.000      0.000
REMARK  Name = .\Carvone.pdb
REMARK  3 active torsions:
REMARK  status: ('A' for Active; 'I' for Inactive)
REMARK    1  A    between atoms: C1_1  and  C2_2
REMARK    2  A    between atoms: C7_8  and  C8_9
REMARK    3  A    between atoms: C7_8  and  C9_10
REMARK                            x       y       z     vdW  Elec       q    Type
REMARK                         _______ _______ _______ _____ _____    ______ ____
ROOT
ATOM      1  C1  UNL     1     -10.764  32.033 -12.578  0.00  0.00    +0.000 C 
ATOM      2  C2  UNL     1      -9.289  31.906 -12.870  0.00  0.00    +0.000 C 
ATOM      3  C3  UNL     1      -8.544  33.018 -12.773  0.00  0.00    +0.000 C 
ATOM      4  C4  UNL     1      -7.105  32.994 -13.038  0.00  0.00    +0.000 C 
ATOM      5  O1  UNL     1      -6.426  34.050 -12.940  0.00  0.00    +0.000 OA
ATOM      6  C5  UNL     1      -6.459  31.740 -13.415  0.00  0.00    +0.000 C 
ATOM      7  C6  UNL     1      -7.172  30.618 -13.519  0.00  0.00    +0.000 C 
ATOM      8  C7  UNL     1      -8.673  30.549 -13.263  0.00  0.00    +0.000 C 
ATOM      9  C8  UNL     1      -9.335  30.038 -14.559  0.00  0.00    +0.000 C 
ATOM     10  C9  UNL     1      -8.897  29.532 -12.127  0.00  0.00    +0.000 C 
ENDROOT
TORSDOF 0
ENDMDL
MODEL 2
REMARK VINA RESULT:      -2.9      0.561      2.569
REMARK  Name = .\Carvone.pdb
REMARK  3 active torsions:
REMARK  status: ('A' for Active; 'I' for Inactive)
REMARK    1  A    between atoms: C1_1  and  C2_2
REMARK    2  A    between atoms: C7_8  and  C8_9
REMARK    3  A    between atoms: C7_8  and  C9_10
REMARK                            x       y       z     vdW  Elec       q    Type
REMARK                         _______ _______ _______ _____ _____    ______ ____
ROOT
ATOM      1  C1  UNL     1      -6.642  29.267 -13.983  0.00  0.00    +0.000 C 
ATOM      2  C2  UNL     1      -7.406  30.492 -13.542  0.00  0.00    +0.000 C 
ATOM      3  C3  UNL     1      -6.727  31.647 -13.468  0.00  0.00    +0.000 C 
ATOM      4  C4  UNL     1      -7.382  32.888 -13.051  0.00  0.00    +0.000 C 
ATOM      5  O1  UNL     1      -6.725  33.961 -12.989  0.00  0.00    +0.000 OA
ATOM      6  C5  UNL     1      -8.801  32.877 -12.706  0.00  0.00    +0.000 C 
ATOM      7  C6  UNL     1      -9.503  31.745 -12.770  0.00  0.00    +0.000 C 
ATOM      8  C7  UNL     1      -8.905  30.408 -13.193  0.00  0.00    +0.000 C 
ATOM      9  C8  UNL     1      -9.108  29.425 -12.023  0.00  0.00    +0.000 C 
ATOM     10  C9  UNL     1      -9.694  29.923 -14.425  0.00  0.00    +0.000 C 
ENDROOT
TORSDOF 0
ENDMDL
MODEL 3
REMARK VINA RESULT:      -2.7      1.914      3.149
REMARK  Name = .\Carvone.pdb
REMARK  3 active torsions:
REMARK  status: ('A' for Active; 'I' for Inactive)
REMARK    1  A    between atoms: C1_1  and  C2_2
REMARK    2  A    between atoms: C7_8  and  C8_9
REMARK    3  A    between atoms: C7_8  and  C9_10
REMARK                            x       y       z     vdW  Elec       q    Type
REMARK                         _______ _______ _______ _____ _____    ______ ____
ROOT
ATOM      1  C1  UNL     1      -7.090  33.744 -13.065  0.00  0.00    +0.000 C 
ATOM      2  C2  UNL     1      -7.650  32.380 -13.386  0.00  0.00    +0.000 C 
ATOM      3  C3  UNL     1      -6.786  31.353 -13.423  0.00  0.00    +0.000 C 
ATOM      4  C4  UNL     1      -7.235  29.993 -13.726  0.00  0.00    +0.000 C 
ATOM      5  O1  UNL     1      -6.407  29.044 -13.754  0.00  0.00    +0.000 OA
ATOM      6  C5  UNL     1      -8.648  29.741 -13.995  0.00  0.00    +0.000 C 
ATOM      7  C6  UNL     1      -9.530  30.739 -13.965  0.00  0.00    +0.000 C 
ATOM      8  C7  UNL     1      -9.154  32.185 -13.660  0.00  0.00    +0.000 C 
ATOM      9  C8  UNL     1      -9.570  33.034 -14.877  0.00  0.00    +0.000 C 
ATOM     10  C9  UNL     1      -9.963  32.617 -12.421  0.00  0.00    +0.000 C 
ENDROOT
TORSDOF 0
ENDMDL
MODEL 4
REMARK VINA RESULT:      -2.7      1.862      2.822
REMARK  Name = .\Carvone.pdb
REMARK  3 active torsions:
REMARK  status: ('A' for Active; 'I' for Inactive)
REMARK    1  A    between atoms: C1_1  and  C2_2
REMARK    2  A    between atoms: C7_8  and  C8_9
REMARK    3  A    between atoms: C7_8  and  C9_10
REMARK                            x       y       z     vdW  Elec       q    Type
REMARK                         _______ _______ _______ _____ _____    ______ ____
ROOT
ATOM      1  C1  UNL     1      -9.182  29.302 -15.498  0.00  0.00    +0.000 C 
ATOM      2  C2  UNL     1      -8.950  30.649 -14.858  0.00  0.00    +0.000 C 
ATOM      3  C3  UNL     1      -9.537  31.712 -15.430  0.00  0.00    +0.000 C 
ATOM      4  C4  UNL     1      -9.371  33.059 -14.882  0.00  0.00    +0.000 C 
ATOM      5  O1  UNL     1      -9.932  34.041 -15.435  0.00  0.00    +0.000 OA
ATOM      6  C5  UNL     1      -8.551  33.259 -13.690  0.00  0.00    +0.000 C 
ATOM      7  C6  UNL     1      -7.955  32.224 -13.098  0.00  0.00    +0.000 C 
ATOM      8  C7  UNL     1      -8.072  30.788 -13.598  0.00  0.00    +0.000 C 
ATOM      9  C8  UNL     1      -6.645  30.293 -13.908  0.00  0.00    +0.000 C 
ATOM     10  C9  UNL     1      -8.677  29.952 -12.454  0.00  0.00    +0.000 C 
ENDROOT
TORSDOF 0
ENDMDL
MODEL 5
REMARK VINA RESULT:      -2.3      1.742      3.101
REMARK  Name = .\Carvone.pdb
REMARK  3 active torsions:
REMARK  status: ('A' for Active; 'I' for Inactive)
REMARK    1  A    between atoms: C1_1  and  C2_2
REMARK    2  A    between atoms: C7_8  and  C8_9
REMARK    3  A    between atoms: C7_8  and  C9_10
REMARK                            x       y       z     vdW  Elec       q    Type
REMARK                         _______ _______ _______ _____ _____    ______ ____
ROOT
ATOM      1  C1  UNL     1      -6.315  31.781 -13.409  0.00  0.00    +0.000 C 
ATOM      2  C2  UNL     1      -7.766  31.428 -13.191  0.00  0.00    +0.000 C 
ATOM      3  C3  UNL     1      -8.589  32.418 -12.809  0.00  0.00    +0.000 C 
ATOM      4  C4  UNL     1     -10.013  32.173 -12.572  0.00  0.00    +0.000 C 
ATOM      5  O1  UNL     1     -10.766  33.116 -12.215  0.00  0.00    +0.000 OA
ATOM      6  C5  UNL     1     -10.555  30.829 -12.753  0.00  0.00    +0.000 C 
ATOM      7  C6  UNL     1      -9.764  29.826 -13.132  0.00  0.00    +0.000 C 
ATOM      8  C7  UNL     1      -8.272  29.988 -13.400  0.00  0.00    +0.000 C 
ATOM      9  C8  UNL     1      -7.529  29.036 -12.442  0.00  0.00    +0.000 C 
ATOM     10  C9  UNL     1      -8.020  29.560 -14.859  0.00  0.00    +0.000 C 
ENDROOT
TORSDOF 0
ENDMDL
MODEL 6
REMARK VINA RESULT:      -2.3      2.374      3.410
REMARK  Name = .\Carvone.pdb
REMARK  3 active torsions:
REMARK  status: ('A' for Active; 'I' for Inactive)
REMARK    1  A    between atoms: C1_1  and  C2_2
REMARK    2  A    between atoms: C7_8  and  C8_9
REMARK    3  A    between atoms: C7_8  and  C9_10
REMARK                            x       y       z     vdW  Elec       q    Type
REMARK                         _______ _______ _______ _____ _____    ______ ____
ROOT
ATOM      1  C1  UNL     1     -10.401  33.168 -15.351  0.00  0.00    +0.000 C 
ATOM      2  C2  UNL     1      -9.351  32.227 -14.812  0.00  0.00    +0.000 C 
ATOM      3  C3  UNL     1      -9.151  31.080 -15.480  0.00  0.00    +0.000 C 
ATOM      4  C4  UNL     1      -8.154  30.106 -15.034  0.00  0.00    +0.000 C 
ATOM      5  O1  UNL     1      -7.983  29.036 -15.677  0.00  0.00    +0.000 OA
ATOM      6  C5  UNL     1      -7.359  30.379 -13.840  0.00  0.00    +0.000 C 
ATOM      7  C6  UNL     1      -7.534  31.509 -13.156  0.00  0.00    +0.000 C 
ATOM      8  C7  UNL     1      -8.547  32.580 -13.546  0.00  0.00    +0.000 C 
ATOM      9  C8  UNL     1      -9.511  32.753 -12.355  0.00  0.00    +0.000 C 
ATOM     10  C9  UNL     1      -7.765  33.887 -13.778  0.00  0.00    +0.000 C 
ENDROOT
TORSDOF 0
ENDMDL
MODEL 7
REMARK VINA RESULT:      -2.0      2.375      3.939
REMARK  Name = .\Carvone.pdb
REMARK  3 active torsions:
REMARK  status: ('A' for Active; 'I' for Inactive)
REMARK    1  A    between atoms: C1_1  and  C2_2
REMARK    2  A    between atoms: C7_8  and  C8_9
REMARK    3  A    between atoms: C7_8  and  C9_10
REMARK                            x       y       z     vdW  Elec       q    Type
REMARK                         _______ _______ _______ _____ _____    ______ ____
ROOT
ATOM      1  C1  UNL     1      -6.293  31.611 -13.232  0.00  0.00    +0.000 C 
ATOM      2  C2  UNL     1      -7.743  31.527 -13.644  0.00  0.00    +0.000 C 
ATOM      3  C3  UNL     1      -8.177  30.355 -14.134  0.00  0.00    +0.000 C 
ATOM      4  C4  UNL     1      -9.566  30.178 -14.560  0.00  0.00    +0.000 C 
ATOM      5  O1  UNL     1      -9.951  29.069 -15.017  0.00  0.00    +0.000 OA
ATOM      6  C5  UNL     1     -10.504  31.292 -14.453  0.00  0.00    +0.000 C 
ATOM      7  C6  UNL     1     -10.104  32.468 -13.969  0.00  0.00    +0.000 C 
ATOM      8  C7  UNL     1      -8.679  32.744 -13.503  0.00  0.00    +0.000 C 
ATOM      9  C8  UNL     1      -8.137  33.911 -14.351  0.00  0.00    +0.000 C 
ATOM     10  C9  UNL     1      -8.755  33.166 -12.023  0.00  0.00    +0.000 C 
ENDROOT
TORSDOF 0
ENDMDL
MODEL 8
REMARK VINA RESULT:      -1.9      2.376      3.420
REMARK  Name = .\Carvone.pdb
REMARK  3 active torsions:
REMARK  status: ('A' for Active; 'I' for Inactive)
REMARK    1  A    between atoms: C1_1  and  C2_2
REMARK    2  A    between atoms: C7_8  and  C8_9
REMARK    3  A    between atoms: C7_8  and  C9_10
REMARK                            x       y       z     vdW  Elec       q    Type
REMARK                         _______ _______ _______ _____ _____    ______ ____
ROOT
ATOM      1  C1  UNL     1      -9.179  32.556 -14.563  0.00  0.00    +0.000 C 
ATOM      2  C2  UNL     1      -8.939  31.345 -13.694  0.00  0.00    +0.000 C 
ATOM      3  C3  UNL     1      -9.947  30.948 -12.901  0.00  0.00    +0.000 C 
ATOM      4  C4  UNL     1      -9.809  29.785 -12.022  0.00  0.00    +0.000 C 
ATOM      5  O1  UNL     1     -10.768  29.430 -11.288  0.00  0.00    +0.000 OA
ATOM      6  C5  UNL     1      -8.555  29.038 -12.002  0.00  0.00    +0.000 C 
ATOM      7  C6  UNL     1      -7.536  29.408 -12.777  0.00  0.00    +0.000 C 
ATOM      8  C7  UNL     1      -7.588  30.603 -13.722  0.00  0.00    +0.000 C 
ATOM      9  C8  UNL     1      -6.462  31.568 -13.303  0.00  0.00    +0.000 C 
ATOM     10  C9  UNL     1      -7.320  30.075 -15.145  0.00  0.00    +0.000 C 
ENDROOT
TORSDOF 0
ENDMDL
MODEL 9
REMARK VINA RESULT:      -1.4      1.912      2.829
REMARK  Name = .\Carvone.pdb
REMARK  3 active torsions:
REMARK  status: ('A' for Active; 'I' for Inactive)
REMARK    1  A    between atoms: C1_1  and  C2_2
REMARK    2  A    between atoms: C7_8  and  C8_9
REMARK    3  A    between atoms: C7_8  and  C9_10
REMARK                            x       y       z     vdW  Elec       q    Type
REMARK                         _______ _______ _______ _____ _____    ______ ____
ROOT
ATOM      1  C1  UNL     1      -7.685  30.828 -12.773  0.00  0.00    +0.000 C 
ATOM      2  C2  UNL     1      -8.362  31.784 -13.725  0.00  0.00    +0.000 C 
ATOM      3  C3  UNL     1      -7.769  32.970 -13.933  0.00  0.00    +0.000 C 
ATOM      4  C4  UNL     1      -8.351  33.962 -14.839  0.00  0.00    +0.000 C 
ATOM      5  O1  UNL     1      -7.776  35.068 -15.019  0.00  0.00    +0.000 OA
ATOM      6  C5  UNL     1      -9.600  33.663 -15.533  0.00  0.00    +0.000 C 
ATOM      7  C6  UNL     1     -10.213  32.494 -15.348  0.00  0.00    +0.000 C 
ATOM      8  C7  UNL     1      -9.682  31.403 -14.425  0.00  0.00    +0.000 C 
ATOM      9  C8  UNL     1     -10.768  31.131 -13.365  0.00  0.00    +0.000 C 
ATOM     10  C9  UNL     1      -9.464  30.142 -15.284  0.00  0.00    +0.000 C 
ENDROOT
TORSDOF 0
ENDMDL
