MODEL 1
REMARK VINA RESULT:      -4.0      0.000      0.000
REMARK  Name = .\Carvacrol.pdb
REMARK  5 active torsions:
REMARK  status: ('A' for Active; 'I' for Inactive)
REMARK    1  A    between atoms: C1_1  and  C2_2
REMARK    2  A    between atoms: C2_2  and  C3_3
REMARK    3  A    between atoms: C2_2  and  C4_4
REMARK    4  A    between atoms: C6_6  and  O1_11
REMARK    5  A    between atoms: C7_7  and  C10_10
REMARK                            x       y       z     vdW  Elec       q    Type
REMARK                         _______ _______ _______ _____ _____    ______ ____
ROOT
ATOM      1  C4  UNL     1       6.422  45.820  26.119  0.00  0.00    +0.000 A 
ATOM      2  C5  UNL     1       6.537  46.855  25.176  0.00  0.00    +0.000 A 
ATOM      3  C6  UNL     1       7.382  46.721  24.065  0.00  0.00    +0.000 A 
ATOM      4  C7  UNL     1       8.125  45.542  23.886  0.00  0.00    +0.000 A 
ATOM      5  C8  UNL     1       8.012  44.506  24.827  0.00  0.00    +0.000 A 
ATOM      6  C9  UNL     1       7.169  44.643  25.932  0.00  0.00    +0.000 A 
ATOM      7  C10 UNL     1       9.033  45.391  22.699  0.00  0.00    +0.000 C 
ENDROOT
BRANCH   1   9
ATOM      8  C1  UNL     1       4.525  44.805  27.425  0.00  0.00    +0.000 C 
ATOM      9  C2  UNL     1       5.502  45.981  27.316  0.00  0.00    +0.000 C 
ATOM     10  C3  UNL     1       6.305  46.155  28.611  0.00  0.00    +0.000 C 
ENDBRANCH   1   9
BRANCH   3  11
ATOM     11  O1  UNL     1       7.486  47.758  23.138  0.00  0.00    +0.000 OA
ATOM     12  H14 UNL     1       8.276  48.394  23.138  0.00  0.00    +0.000 HD
ENDBRANCH   3  11
TORSDOF 2
ENDMDL
MODEL 2
REMARK VINA RESULT:      -3.7      1.524      4.208
REMARK  Name = .\Carvacrol.pdb
REMARK  5 active torsions:
REMARK  status: ('A' for Active; 'I' for Inactive)
REMARK    1  A    between atoms: C1_1  and  C2_2
REMARK    2  A    between atoms: C2_2  and  C3_3
REMARK    3  A    between atoms: C2_2  and  C4_4
REMARK    4  A    between atoms: C6_6  and  O1_11
REMARK    5  A    between atoms: C7_7  and  C10_10
REMARK                            x       y       z     vdW  Elec       q    Type
REMARK                         _______ _______ _______ _____ _____    ______ ____
ROOT
ATOM      1  C4  UNL     1       7.691  45.825  24.362  0.00  0.00    +0.000 A 
ATOM      2  C5  UNL     1       6.904  46.855  24.906  0.00  0.00    +0.000 A 
ATOM      3  C6  UNL     1       6.103  46.625  26.034  0.00  0.00    +0.000 A 
ATOM      4  C7  UNL     1       6.082  45.353  26.632  0.00  0.00    +0.000 A 
ATOM      5  C8  UNL     1       6.867  44.323  26.091  0.00  0.00    +0.000 A 
ATOM      6  C9  UNL     1       7.664  44.556  24.967  0.00  0.00    +0.000 A 
ATOM      7  C10 UNL     1       5.226  45.098  27.840  0.00  0.00    +0.000 C 
ENDROOT
BRANCH   1   9
ATOM      8  C1  UNL     1       8.158  45.176  21.977  0.00  0.00    +0.000 C 
ATOM      9  C2  UNL     1       8.552  46.092  23.141  0.00  0.00    +0.000 C 
ATOM     10  C3  UNL     1       8.487  47.568  22.730  0.00  0.00    +0.000 C 
ENDBRANCH   1   9
BRANCH   3  11
ATOM     11  O1  UNL     1       5.327  47.657  26.561  0.00  0.00    +0.000 OA
ATOM     12  H14 UNL     1       5.124  47.715  27.553  0.00  0.00    +0.000 HD
ENDBRANCH   3  11
TORSDOF 2
ENDMDL
MODEL 3
REMARK VINA RESULT:      -3.5      1.663      2.406
REMARK  Name = .\Carvacrol.pdb
REMARK  5 active torsions:
REMARK  status: ('A' for Active; 'I' for Inactive)
REMARK    1  A    between atoms: C1_1  and  C2_2
REMARK    2  A    between atoms: C2_2  and  C3_3
REMARK    3  A    between atoms: C2_2  and  C4_4
REMARK    4  A    between atoms: C6_6  and  O1_11
REMARK    5  A    between atoms: C7_7  and  C10_10
REMARK                            x       y       z     vdW  Elec       q    Type
REMARK                         _______ _______ _______ _____ _____    ______ ____
ROOT
ATOM      1  C4  UNL     1       6.953  45.830  25.401  0.00  0.00    +0.000 A 
ATOM      2  C5  UNL     1       7.716  44.709  25.032  0.00  0.00    +0.000 A 
ATOM      3  C6  UNL     1       8.399  44.679  23.808  0.00  0.00    +0.000 A 
ATOM      4  C7  UNL     1       8.324  45.778  22.935  0.00  0.00    +0.000 A 
ATOM      5  C8  UNL     1       7.563  46.899  23.301  0.00  0.00    +0.000 A 
ATOM      6  C9  UNL     1       6.885  46.925  24.522  0.00  0.00    +0.000 A 
ATOM      7  C10 UNL     1       9.053  45.753  21.622  0.00  0.00    +0.000 C 
ENDROOT
BRANCH   1   9
ATOM      8  C1  UNL     1       5.328  47.086  26.854  0.00  0.00    +0.000 C 
ATOM      9  C2  UNL     1       6.220  45.846  26.730  0.00  0.00    +0.000 C 
ATOM     10  C3  UNL     1       5.410  44.560  26.930  0.00  0.00    +0.000 C 
ENDBRANCH   1   9
BRANCH   3  11
ATOM     11  O1  UNL     1       9.151  43.558  23.455  0.00  0.00    +0.000 OA
ATOM     12  H14 UNL     1       8.712  42.671  23.236  0.00  0.00    +0.000 HD
ENDBRANCH   3  11
TORSDOF 2
ENDMDL
MODEL 4
REMARK VINA RESULT:      -2.8      2.014      4.776
REMARK  Name = .\Carvacrol.pdb
REMARK  5 active torsions:
REMARK  status: ('A' for Active; 'I' for Inactive)
REMARK    1  A    between atoms: C1_1  and  C2_2
REMARK    2  A    between atoms: C2_2  and  C3_3
REMARK    3  A    between atoms: C2_2  and  C4_4
REMARK    4  A    between atoms: C6_6  and  O1_11
REMARK    5  A    between atoms: C7_7  and  C10_10
REMARK                            x       y       z     vdW  Elec       q    Type
REMARK                         _______ _______ _______ _____ _____    ______ ____
ROOT
ATOM      1  C4  UNL     1       8.445  45.140  23.641  0.00  0.00    +0.000 A 
ATOM      2  C5  UNL     1       8.029  44.497  24.819  0.00  0.00    +0.000 A 
ATOM      3  C6  UNL     1       7.111  45.112  25.684  0.00  0.00    +0.000 A 
ATOM      4  C7  UNL     1       6.598  46.384  25.376  0.00  0.00    +0.000 A 
ATOM      5  C8  UNL     1       7.013  47.027  24.199  0.00  0.00    +0.000 A 
ATOM      6  C9  UNL     1       7.927  46.412  23.340  0.00  0.00    +0.000 A 
ATOM      7  C10 UNL     1       5.615  47.048  26.297  0.00  0.00    +0.000 C 
ENDROOT
BRANCH   1   9
ATOM      8  C1  UNL     1       8.845  43.185  22.109  0.00  0.00    +0.000 C 
ATOM      9  C2  UNL     1       9.438  44.461  22.717  0.00  0.00    +0.000 C 
ATOM     10  C3  UNL     1       9.921  45.421  21.623  0.00  0.00    +0.000 C 
ENDBRANCH   1   9
BRANCH   3  11
ATOM     11  O1  UNL     1       6.707  44.461  26.851  0.00  0.00    +0.000 OA
ATOM     12  H14 UNL     1       7.287  44.454  27.683  0.00  0.00    +0.000 HD
ENDBRANCH   3  11
TORSDOF 2
ENDMDL
MODEL 5
REMARK VINA RESULT:      -2.6      2.002      5.048
REMARK  Name = .\Carvacrol.pdb
REMARK  5 active torsions:
REMARK  status: ('A' for Active; 'I' for Inactive)
REMARK    1  A    between atoms: C1_1  and  C2_2
REMARK    2  A    between atoms: C2_2  and  C3_3
REMARK    3  A    between atoms: C2_2  and  C4_4
REMARK    4  A    between atoms: C6_6  and  O1_11
REMARK    5  A    between atoms: C7_7  and  C10_10
REMARK                            x       y       z     vdW  Elec       q    Type
REMARK                         _______ _______ _______ _____ _____    ______ ____
ROOT
ATOM      1  C4  UNL     1       8.530  45.257  22.954  0.00  0.00    +0.000 A 
ATOM      2  C5  UNL     1       8.162  44.430  24.030  0.00  0.00    +0.000 A 
ATOM      3  C6  UNL     1       7.345  44.917  25.061  0.00  0.00    +0.000 A 
ATOM      4  C7  UNL     1       6.886  46.245  25.025  0.00  0.00    +0.000 A 
ATOM      5  C8  UNL     1       7.251  47.073  23.952  0.00  0.00    +0.000 A 
ATOM      6  C9  UNL     1       8.065  46.584  22.927  0.00  0.00    +0.000 A 
ATOM      7  C10 UNL     1       6.010  46.773  26.126  0.00  0.00    +0.000 C 
ENDROOT
BRANCH   1   9
ATOM      8  C1  UNL     1      10.632  45.617  21.621  0.00  0.00    +0.000 C 
ATOM      9  C2  UNL     1       9.414  44.715  21.847  0.00  0.00    +0.000 C 
ATOM     10  C3  UNL     1       9.842  43.271  22.138  0.00  0.00    +0.000 C 
ENDBRANCH   1   9
BRANCH   3  11
ATOM     11  O1  UNL     1       6.990  44.084  26.122  0.00  0.00    +0.000 OA
ATOM     12  H14 UNL     1       7.615  43.923  26.904  0.00  0.00    +0.000 HD
ENDBRANCH   3  11
TORSDOF 2
ENDMDL
MODEL 6
REMARK VINA RESULT:      -2.4      1.452      2.058
REMARK  Name = .\Carvacrol.pdb
REMARK  5 active torsions:
REMARK  status: ('A' for Active; 'I' for Inactive)
REMARK    1  A    between atoms: C1_1  and  C2_2
REMARK    2  A    between atoms: C2_2  and  C3_3
REMARK    3  A    between atoms: C2_2  and  C4_4
REMARK    4  A    between atoms: C6_6  and  O1_11
REMARK    5  A    between atoms: C7_7  and  C10_10
REMARK                            x       y       z     vdW  Elec       q    Type
REMARK                         _______ _______ _______ _____ _____    ______ ____
ROOT
ATOM      1  C4  UNL     1       6.462  46.178  26.073  0.00  0.00    +0.000 A 
ATOM      2  C5  UNL     1       7.220  45.016  25.846  0.00  0.00    +0.000 A 
ATOM      3  C6  UNL     1       7.880  44.819  24.624  0.00  0.00    +0.000 A 
ATOM      4  C7  UNL     1       7.787  45.789  23.611  0.00  0.00    +0.000 A 
ATOM      5  C8  UNL     1       7.030  46.950  23.835  0.00  0.00    +0.000 A 
ATOM      6  C9  UNL     1       6.375  47.143  25.054  0.00  0.00    +0.000 A 
ATOM      7  C10 UNL     1       8.491  45.585  22.300  0.00  0.00    +0.000 C 
ENDROOT
BRANCH   1   9
ATOM      8  C1  UNL     1       4.282  45.958  27.309  0.00  0.00    +0.000 C 
ATOM      9  C2  UNL     1       5.755  46.375  27.400  0.00  0.00    +0.000 C 
ATOM     10  C3  UNL     1       6.473  45.623  28.527  0.00  0.00    +0.000 C 
ENDBRANCH   1   9
BRANCH   3  11
ATOM     11  O1  UNL     1       8.628  43.661  24.413  0.00  0.00    +0.000 OA
ATOM     12  H14 UNL     1       8.381  42.993  23.691  0.00  0.00    +0.000 HD
ENDBRANCH   3  11
TORSDOF 2
ENDMDL
MODEL 7
REMARK VINA RESULT:      -2.1      4.354      5.122
REMARK  Name = .\Carvacrol.pdb
REMARK  5 active torsions:
REMARK  status: ('A' for Active; 'I' for Inactive)
REMARK    1  A    between atoms: C1_1  and  C2_2
REMARK    2  A    between atoms: C2_2  and  C3_3
REMARK    3  A    between atoms: C2_2  and  C4_4
REMARK    4  A    between atoms: C6_6  and  O1_11
REMARK    5  A    between atoms: C7_7  and  C10_10
REMARK                            x       y       z     vdW  Elec       q    Type
REMARK                         _______ _______ _______ _____ _____    ______ ____
ROOT
ATOM      1  C4  UNL     1       9.247  44.959  21.831  0.00  0.00    +0.000 A 
ATOM      2  C5  UNL     1       8.119  45.793  21.750  0.00  0.00    +0.000 A 
ATOM      3  C6  UNL     1       8.237  47.178  21.941  0.00  0.00    +0.000 A 
ATOM      4  C7  UNL     1       9.494  47.743  22.219  0.00  0.00    +0.000 A 
ATOM      5  C8  UNL     1      10.621  46.912  22.301  0.00  0.00    +0.000 A 
ATOM      6  C9  UNL     1      10.500  45.533  22.109  0.00  0.00    +0.000 A 
ATOM      7  C10 UNL     1       9.628  49.225  22.426  0.00  0.00    +0.000 C 
ENDROOT
BRANCH   1   9
ATOM      8  C1  UNL     1      10.123  42.685  22.459  0.00  0.00    +0.000 C 
ATOM      9  C2  UNL     1       9.101  43.463  21.621  0.00  0.00    +0.000 C 
ATOM     10  C3  UNL     1       7.671  42.998  21.923  0.00  0.00    +0.000 C 
ENDBRANCH   1   9
BRANCH   3  11
ATOM     11  O1  UNL     1       7.108  47.993  21.858  0.00  0.00    +0.000 OA
ATOM     12  H14 UNL     1       7.182  48.983  21.651  0.00  0.00    +0.000 HD
ENDBRANCH   3  11
TORSDOF 2
ENDMDL
MODEL 8
REMARK VINA RESULT:      -2.1      1.423      2.174
REMARK  Name = .\Carvacrol.pdb
REMARK  5 active torsions:
REMARK  status: ('A' for Active; 'I' for Inactive)
REMARK    1  A    between atoms: C1_1  and  C2_2
REMARK    2  A    between atoms: C2_2  and  C3_3
REMARK    3  A    between atoms: C2_2  and  C4_4
REMARK    4  A    between atoms: C6_6  and  O1_11
REMARK    5  A    between atoms: C7_7  and  C10_10
REMARK                            x       y       z     vdW  Elec       q    Type
REMARK                         _______ _______ _______ _____ _____    ______ ____
ROOT
ATOM      1  C4  UNL     1       7.538  45.965  24.485  0.00  0.00    +0.000 A 
ATOM      2  C5  UNL     1       7.359  47.083  23.653  0.00  0.00    +0.000 A 
ATOM      3  C6  UNL     1       8.357  47.467  22.745  0.00  0.00    +0.000 A 
ATOM      4  C7  UNL     1       9.552  46.732  22.662  0.00  0.00    +0.000 A 
ATOM      5  C8  UNL     1       9.733  45.615  23.493  0.00  0.00    +0.000 A 
ATOM      6  C9  UNL     1       8.736  45.235  24.395  0.00  0.00    +0.000 A 
ATOM      7  C10 UNL     1      10.625  47.137  21.693  0.00  0.00    +0.000 C 
ENDROOT
BRANCH   1   9
ATOM      8  C1  UNL     1       6.806  44.259  26.183  0.00  0.00    +0.000 C 
ATOM      9  C2  UNL     1       6.448  45.563  25.461  0.00  0.00    +0.000 C 
ATOM     10  C3  UNL     1       6.160  46.688  26.463  0.00  0.00    +0.000 C 
ENDBRANCH   1   9
BRANCH   3  11
ATOM     11  O1  UNL     1       8.165  48.580  21.926  0.00  0.00    +0.000 OA
ATOM     12  H14 UNL     1       8.466  49.506  22.207  0.00  0.00    +0.000 HD
ENDBRANCH   3  11
TORSDOF 2
ENDMDL
MODEL 9
REMARK VINA RESULT:      -1.6      1.611      2.360
REMARK  Name = .\Carvacrol.pdb
REMARK  5 active torsions:
REMARK  status: ('A' for Active; 'I' for Inactive)
REMARK    1  A    between atoms: C1_1  and  C2_2
REMARK    2  A    between atoms: C2_2  and  C3_3
REMARK    3  A    between atoms: C2_2  and  C4_4
REMARK    4  A    between atoms: C6_6  and  O1_11
REMARK    5  A    between atoms: C7_7  and  C10_10
REMARK                            x       y       z     vdW  Elec       q    Type
REMARK                         _______ _______ _______ _____ _____    ______ ____
ROOT
ATOM      1  C4  UNL     1       5.604  45.897  26.523  0.00  0.00    +0.000 A 
ATOM      2  C5  UNL     1       6.683  45.021  26.318  0.00  0.00    +0.000 A 
ATOM      3  C6  UNL     1       7.597  45.242  25.277  0.00  0.00    +0.000 A 
ATOM      4  C7  UNL     1       7.438  46.349  24.426  0.00  0.00    +0.000 A 
ATOM      5  C8  UNL     1       6.361  47.226  24.629  0.00  0.00    +0.000 A 
ATOM      6  C9  UNL     1       5.453  47.002  25.667  0.00  0.00    +0.000 A 
ATOM      7  C10 UNL     1       8.412  46.592  23.309  0.00  0.00    +0.000 C 
ENDROOT
BRANCH   1   9
ATOM      8  C1  UNL     1       3.284  46.338  27.390  0.00  0.00    +0.000 C 
ATOM      9  C2  UNL     1       4.625  45.643  27.654  0.00  0.00    +0.000 C 
ATOM     10  C3  UNL     1       4.431  44.140  27.892  0.00  0.00    +0.000 C 
ENDBRANCH   1   9
BRANCH   3  11
ATOM     11  O1  UNL     1       8.663  44.362  25.085  0.00  0.00    +0.000 OA
ATOM     12  H14 UNL     1       9.019  44.153  24.159  0.00  0.00    +0.000 HD
ENDBRANCH   3  11
TORSDOF 2
ENDMDL
