MODEL 1
REMARK VINA RESULT:      -4.6      0.000      0.000
REMARK  Name = .\Carvone.pdb
REMARK  3 active torsions:
REMARK  status: ('A' for Active; 'I' for Inactive)
REMARK    1  A    between atoms: C1_1  and  C2_2
REMARK    2  A    between atoms: C7_8  and  C8_9
REMARK    3  A    between atoms: C7_8  and  C9_10
REMARK                            x       y       z     vdW  Elec       q    Type
REMARK                         _______ _______ _______ _____ _____    ______ ____
ROOT
ATOM      1  C1  UNL     1       4.060  56.781   6.786  0.00  0.00    +0.000 C 
ATOM      2  C2  UNL     1       3.483  55.837   7.812  0.00  0.00    +0.000 C 
ATOM      3  C3  UNL     1       2.360  55.179   7.482  0.00  0.00    +0.000 C 
ATOM      4  C4  UNL     1       1.727  54.242   8.412  0.00  0.00    +0.000 C 
ATOM      5  O1  UNL     1       0.674  53.637   8.081  0.00  0.00    +0.000 OA
ATOM      6  C5  UNL     1       2.322  54.013   9.725  0.00  0.00    +0.000 C 
ATOM      7  C6  UNL     1       3.438  54.650  10.082  0.00  0.00    +0.000 C 
ATOM      8  C7  UNL     1       4.165  55.642   9.181  0.00  0.00    +0.000 C 
ATOM      9  C8  UNL     1       4.213  56.989   9.928  0.00  0.00    +0.000 C 
ATOM     10  C9  UNL     1       5.595  55.108   8.973  0.00  0.00    +0.000 C 
ENDROOT
TORSDOF 0
ENDMDL
MODEL 2
REMARK VINA RESULT:      -4.5      1.340      1.676
REMARK  Name = .\Carvone.pdb
REMARK  3 active torsions:
REMARK  status: ('A' for Active; 'I' for Inactive)
REMARK    1  A    between atoms: C1_1  and  C2_2
REMARK    2  A    between atoms: C7_8  and  C8_9
REMARK    3  A    between atoms: C7_8  and  C9_10
REMARK                            x       y       z     vdW  Elec       q    Type
REMARK                         _______ _______ _______ _____ _____    ______ ____
ROOT
ATOM      1  C1  UNL     1       2.717  55.466   7.153  0.00  0.00    +0.000 C 
ATOM      2  C2  UNL     1       2.655  54.593   8.382  0.00  0.00    +0.000 C 
ATOM      3  C3  UNL     1       1.477  54.018   8.671  0.00  0.00    +0.000 C 
ATOM      4  C4  UNL     1       1.319  53.154   9.842  0.00  0.00    +0.000 C 
ATOM      5  O1  UNL     1       0.204  52.625  10.092  0.00  0.00    +0.000 OA
ATOM      6  C5  UNL     1       2.460  52.909  10.719  0.00  0.00    +0.000 C 
ATOM      7  C6  UNL     1       3.644  53.465  10.459  0.00  0.00    +0.000 C 
ATOM      8  C7  UNL     1       3.901  54.376   9.264  0.00  0.00    +0.000 C 
ATOM      9  C8  UNL     1       4.382  55.732   9.818  0.00  0.00    +0.000 C 
ATOM     10  C9  UNL     1       5.020  53.729   8.426  0.00  0.00    +0.000 C 
ENDROOT
TORSDOF 0
ENDMDL
MODEL 3
REMARK VINA RESULT:      -4.4      2.128      3.785
REMARK  Name = .\Carvone.pdb
REMARK  3 active torsions:
REMARK  status: ('A' for Active; 'I' for Inactive)
REMARK    1  A    between atoms: C1_1  and  C2_2
REMARK    2  A    between atoms: C7_8  and  C8_9
REMARK    3  A    between atoms: C7_8  and  C9_10
REMARK                            x       y       z     vdW  Elec       q    Type
REMARK                         _______ _______ _______ _____ _____    ______ ____
ROOT
ATOM      1  C1  UNL     1       3.707  53.565  10.417  0.00  0.00    +0.000 C 
ATOM      2  C2  UNL     1       3.536  54.576   9.310  0.00  0.00    +0.000 C 
ATOM      3  C3  UNL     1       4.189  55.742   9.435  0.00  0.00    +0.000 C 
ATOM      4  C4  UNL     1       4.085  56.785   8.413  0.00  0.00    +0.000 C 
ATOM      5  O1  UNL     1       4.707  57.872   8.552  0.00  0.00    +0.000 OA
ATOM      6  C5  UNL     1       3.257  56.561   7.232  0.00  0.00    +0.000 C 
ATOM      7  C6  UNL     1       2.597  55.413   7.078  0.00  0.00    +0.000 C 
ATOM      8  C7  UNL     1       2.646  54.273   8.089  0.00  0.00    +0.000 C 
ATOM      9  C8  UNL     1       1.200  54.014   8.557  0.00  0.00    +0.000 C 
ATOM     10  C9  UNL     1       3.186  53.031   7.353  0.00  0.00    +0.000 C 
ENDROOT
TORSDOF 0
ENDMDL
MODEL 4
REMARK VINA RESULT:      -4.4      1.074      2.508
REMARK  Name = .\Carvone.pdb
REMARK  3 active torsions:
REMARK  status: ('A' for Active; 'I' for Inactive)
REMARK    1  A    between atoms: C1_1  and  C2_2
REMARK    2  A    between atoms: C7_8  and  C8_9
REMARK    3  A    between atoms: C7_8  and  C9_10
REMARK                            x       y       z     vdW  Elec       q    Type
REMARK                         _______ _______ _______ _____ _____    ______ ____
ROOT
ATOM      1  C1  UNL     1       4.176  56.184  10.727  0.00  0.00    +0.000 C 
ATOM      2  C2  UNL     1       3.339  55.354   9.784  0.00  0.00    +0.000 C 
ATOM      3  C3  UNL     1       2.305  54.679  10.310  0.00  0.00    +0.000 C 
ATOM      4  C4  UNL     1       1.436  53.847   9.476  0.00  0.00    +0.000 C 
ATOM      5  O1  UNL     1       0.471  53.223   9.992  0.00  0.00    +0.000 OA
ATOM      6  C5  UNL     1       1.693  53.744   8.043  0.00  0.00    +0.000 C 
ATOM      7  C6  UNL     1       2.712  54.402   7.490  0.00  0.00    +0.000 C 
ATOM      8  C7  UNL     1       3.667  55.290   8.279  0.00  0.00    +0.000 C 
ATOM      9  C8  UNL     1       5.087  54.722   8.086  0.00  0.00    +0.000 C 
ATOM     10  C9  UNL     1       3.584  56.705   7.674  0.00  0.00    +0.000 C 
ENDROOT
TORSDOF 0
ENDMDL
MODEL 5
REMARK VINA RESULT:      -4.3      2.239      3.035
REMARK  Name = .\Carvone.pdb
REMARK  3 active torsions:
REMARK  status: ('A' for Active; 'I' for Inactive)
REMARK    1  A    between atoms: C1_1  and  C2_2
REMARK    2  A    between atoms: C7_8  and  C8_9
REMARK    3  A    between atoms: C7_8  and  C9_10
REMARK                            x       y       z     vdW  Elec       q    Type
REMARK                         _______ _______ _______ _____ _____    ______ ____
ROOT
ATOM      1  C1  UNL     1       6.990  55.432   6.595  0.00  0.00    +0.000 C 
ATOM      2  C2  UNL     1       5.490  55.534   6.721  0.00  0.00    +0.000 C 
ATOM      3  C3  UNL     1       4.788  54.391   6.671  0.00  0.00    +0.000 C 
ATOM      4  C4  UNL     1       3.329  54.389   6.784  0.00  0.00    +0.000 C 
ATOM      5  O1  UNL     1       2.691  53.304   6.735  0.00  0.00    +0.000 OA
ATOM      6  C5  UNL     1       2.615  55.651   6.956  0.00  0.00    +0.000 C 
ATOM      7  C6  UNL     1       3.283  56.803   7.010  0.00  0.00    +0.000 C 
ATOM      8  C7  UNL     1       4.801  56.901   6.901  0.00  0.00    +0.000 C 
ATOM      9  C8  UNL     1       5.116  57.800   5.688  0.00  0.00    +0.000 C 
ATOM     10  C9  UNL     1       5.311  57.570   8.192  0.00  0.00    +0.000 C 
ENDROOT
TORSDOF 0
ENDMDL
MODEL 6
REMARK VINA RESULT:      -4.3      2.017      3.284
REMARK  Name = .\Carvone.pdb
REMARK  3 active torsions:
REMARK  status: ('A' for Active; 'I' for Inactive)
REMARK    1  A    between atoms: C1_1  and  C2_2
REMARK    2  A    between atoms: C7_8  and  C8_9
REMARK    3  A    between atoms: C7_8  and  C9_10
REMARK                            x       y       z     vdW  Elec       q    Type
REMARK                         _______ _______ _______ _____ _____    ______ ____
ROOT
ATOM      1  C1  UNL     1       1.780  54.073   8.242  0.00  0.00    +0.000 C 
ATOM      2  C2  UNL     1       2.861  55.097   7.994  0.00  0.00    +0.000 C 
ATOM      3  C3  UNL     1       2.747  55.857   6.893  0.00  0.00    +0.000 C 
ATOM      4  C4  UNL     1       3.745  56.877   6.567  0.00  0.00    +0.000 C 
ATOM      5  O1  UNL     1       3.618  57.579   5.529  0.00  0.00    +0.000 OA
ATOM      6  C5  UNL     1       4.890  57.077   7.451  0.00  0.00    +0.000 C 
ATOM      7  C6  UNL     1       5.031  56.339   8.552  0.00  0.00    +0.000 C 
ATOM      8  C7  UNL     1       4.043  55.255   8.970  0.00  0.00    +0.000 C 
ATOM      9  C8  UNL     1       4.824  53.929   9.052  0.00  0.00    +0.000 C 
ATOM     10  C9  UNL     1       3.510  55.634  10.366  0.00  0.00    +0.000 C 
ENDROOT
TORSDOF 0
ENDMDL
MODEL 7
REMARK VINA RESULT:      -4.2      2.503      3.834
REMARK  Name = .\Carvone.pdb
REMARK  3 active torsions:
REMARK  status: ('A' for Active; 'I' for Inactive)
REMARK    1  A    between atoms: C1_1  and  C2_2
REMARK    2  A    between atoms: C7_8  and  C8_9
REMARK    3  A    between atoms: C7_8  and  C9_10
REMARK                            x       y       z     vdW  Elec       q    Type
REMARK                         _______ _______ _______ _____ _____    ______ ____
ROOT
ATOM      1  C1  UNL     1       2.461  54.524   9.023  0.00  0.00    +0.000 C 
ATOM      2  C2  UNL     1       3.554  55.546   9.214  0.00  0.00    +0.000 C 
ATOM      3  C3  UNL     1       3.868  55.884  10.475  0.00  0.00    +0.000 C 
ATOM      4  C4  UNL     1       4.915  56.866  10.761  0.00  0.00    +0.000 C 
ATOM      5  O1  UNL     1       5.192  57.167  11.952  0.00  0.00    +0.000 OA
ATOM      6  C5  UNL     1       5.637  57.495   9.659  0.00  0.00    +0.000 C 
ATOM      7  C6  UNL     1       5.349  57.180   8.396  0.00  0.00    +0.000 C 
ATOM      8  C7  UNL     1       4.276  56.170   8.004  0.00  0.00    +0.000 C 
ATOM      9  C8  UNL     1       3.253  56.909   7.119  0.00  0.00    +0.000 C 
ATOM     10  C9  UNL     1       4.968  55.061   7.188  0.00  0.00    +0.000 C 
ENDROOT
TORSDOF 0
ENDMDL
MODEL 8
REMARK VINA RESULT:      -4.2      1.334      1.903
REMARK  Name = .\Carvone.pdb
REMARK  3 active torsions:
REMARK  status: ('A' for Active; 'I' for Inactive)
REMARK    1  A    between atoms: C1_1  and  C2_2
REMARK    2  A    between atoms: C7_8  and  C8_9
REMARK    3  A    between atoms: C7_8  and  C9_10
REMARK                            x       y       z     vdW  Elec       q    Type
REMARK                         _______ _______ _______ _____ _____    ______ ____
ROOT
ATOM      1  C1  UNL     1       3.434  53.371   6.351  0.00  0.00    +0.000 C 
ATOM      2  C2  UNL     1       2.964  53.782   7.725  0.00  0.00    +0.000 C 
ATOM      3  C3  UNL     1       1.862  53.184   8.203  0.00  0.00    +0.000 C 
ATOM      4  C4  UNL     1       1.330  53.516   9.526  0.00  0.00    +0.000 C 
ATOM      5  O1  UNL     1       0.294  52.941   9.955  0.00  0.00    +0.000 OA
ATOM      6  C5  UNL     1       2.005  54.517  10.347  0.00  0.00    +0.000 C 
ATOM      7  C6  UNL     1       3.102  55.129   9.900  0.00  0.00    +0.000 C 
ATOM      8  C7  UNL     1       3.726  54.847   8.538  0.00  0.00    +0.000 C 
ATOM      9  C8  UNL     1       3.742  56.177   7.758  0.00  0.00    +0.000 C 
ATOM     10  C9  UNL     1       5.170  54.370   8.786  0.00  0.00    +0.000 C 
ENDROOT
TORSDOF 0
ENDMDL
MODEL 9
REMARK VINA RESULT:      -4.1      1.377      2.931
REMARK  Name = .\Carvone.pdb
REMARK  3 active torsions:
REMARK  status: ('A' for Active; 'I' for Inactive)
REMARK    1  A    between atoms: C1_1  and  C2_2
REMARK    2  A    between atoms: C7_8  and  C8_9
REMARK    3  A    between atoms: C7_8  and  C9_10
REMARK                            x       y       z     vdW  Elec       q    Type
REMARK                         _______ _______ _______ _____ _____    ______ ____
ROOT
ATOM      1  C1  UNL     1       3.887  54.456  10.639  0.00  0.00    +0.000 C 
ATOM      2  C2  UNL     1       3.898  55.308   9.394  0.00  0.00    +0.000 C 
ATOM      3  C3  UNL     1       3.073  54.953   8.397  0.00  0.00    +0.000 C 
ATOM      4  C4  UNL     1       3.013  55.718   7.150  0.00  0.00    +0.000 C 
ATOM      5  O1  UNL     1       2.230  55.366   6.229  0.00  0.00    +0.000 OA
ATOM      6  C5  UNL     1       3.864  56.892   6.981  0.00  0.00    +0.000 C 
ATOM      7  C6  UNL     1       4.694  57.271   7.953  0.00  0.00    +0.000 C 
ATOM      8  C7  UNL     1       4.823  56.536   9.282  0.00  0.00    +0.000 C 
ATOM      9  C8  UNL     1       6.292  56.088   9.416  0.00  0.00    +0.000 C 
ATOM     10  C9  UNL     1       4.481  57.543  10.397  0.00  0.00    +0.000 C 
ENDROOT
TORSDOF 0
ENDMDL
