MODEL 1
REMARK VINA RESULT:      -3.9      0.000      0.000
REMARK  Name = .\Carvone.pdb
REMARK  3 active torsions:
REMARK  status: ('A' for Active; 'I' for Inactive)
REMARK    1  A    between atoms: C1_1  and  C2_2
REMARK    2  A    between atoms: C7_8  and  C8_9
REMARK    3  A    between atoms: C7_8  and  C9_10
REMARK                            x       y       z     vdW  Elec       q    Type
REMARK                         _______ _______ _______ _____ _____    ______ ____
ROOT
ATOM      1  C1  UNL     1      -0.091  91.294 141.901  0.00  0.00    +0.000 C 
ATOM      2  C2  UNL     1       0.798  92.114 140.999  0.00  0.00    +0.000 C 
ATOM      3  C3  UNL     1       0.507  92.120 139.688  0.00  0.00    +0.000 C 
ATOM      4  C4  UNL     1       1.312  92.886 138.735  0.00  0.00    +0.000 C 
ATOM      5  O1  UNL     1       1.020  92.877 137.509  0.00  0.00    +0.000 OA
ATOM      6  C5  UNL     1       2.455  93.660 139.210  0.00  0.00    +0.000 C 
ATOM      7  C6  UNL     1       2.768  93.676 140.506  0.00  0.00    +0.000 C 
ATOM      8  C7  UNL     1       1.989  92.910 141.569  0.00  0.00    +0.000 C 
ATOM      9  C8  UNL     1       2.975  91.942 142.251  0.00  0.00    +0.000 C 
ATOM     10  C9  UNL     1       1.477  93.941 142.593  0.00  0.00    +0.000 C 
ENDROOT
TORSDOF 0
ENDMDL
MODEL 2
REMARK VINA RESULT:      -3.8      5.282      7.232
REMARK  Name = .\Carvone.pdb
REMARK  3 active torsions:
REMARK  status: ('A' for Active; 'I' for Inactive)
REMARK    1  A    between atoms: C1_1  and  C2_2
REMARK    2  A    between atoms: C7_8  and  C8_9
REMARK    3  A    between atoms: C7_8  and  C9_10
REMARK                            x       y       z     vdW  Elec       q    Type
REMARK                         _______ _______ _______ _____ _____    ______ ____
ROOT
ATOM      1  C1  UNL     1      -0.005  97.615 133.211  0.00  0.00    +0.000 C 
ATOM      2  C2  UNL     1       0.721  96.832 134.277  0.00  0.00    +0.000 C 
ATOM      3  C3  UNL     1       0.253  95.607 134.568  0.00  0.00    +0.000 C 
ATOM      4  C4  UNL     1       0.890  94.772 135.587  0.00  0.00    +0.000 C 
ATOM      5  O1  UNL     1       0.434  93.626 135.842  0.00  0.00    +0.000 OA
ATOM      6  C5  UNL     1       2.057  95.273 136.307  0.00  0.00    +0.000 C 
ATOM      7  C6  UNL     1       2.546  96.485 136.041  0.00  0.00    +0.000 C 
ATOM      8  C7  UNL     1       1.949  97.422 134.998  0.00  0.00    +0.000 C 
ATOM      9  C8  UNL     1       1.544  98.719 135.726  0.00  0.00    +0.000 C 
ATOM     10  C9  UNL     1       3.054  97.726 133.968  0.00  0.00    +0.000 C 
ENDROOT
TORSDOF 0
ENDMDL
MODEL 3
REMARK VINA RESULT:      -3.8      5.182      6.726
REMARK  Name = .\Carvone.pdb
REMARK  3 active torsions:
REMARK  status: ('A' for Active; 'I' for Inactive)
REMARK    1  A    between atoms: C1_1  and  C2_2
REMARK    2  A    between atoms: C7_8  and  C8_9
REMARK    3  A    between atoms: C7_8  and  C9_10
REMARK                            x       y       z     vdW  Elec       q    Type
REMARK                         _______ _______ _______ _____ _____    ______ ____
ROOT
ATOM      1  C1  UNL     1       0.508  94.451 135.337  0.00  0.00    +0.000 C 
ATOM      2  C2  UNL     1       1.320  95.630 135.816  0.00  0.00    +0.000 C 
ATOM      3  C3  UNL     1       2.248  95.397 136.757  0.00  0.00    +0.000 C 
ATOM      4  C4  UNL     1       3.085  96.476 137.284  0.00  0.00    +0.000 C 
ATOM      5  O1  UNL     1       3.950  96.233 138.166  0.00  0.00    +0.000 OA
ATOM      6  C5  UNL     1       2.911  97.836 136.782  0.00  0.00    +0.000 C 
ATOM      7  C6  UNL     1       1.998  98.100 135.847  0.00  0.00    +0.000 C 
ATOM      8  C7  UNL     1       1.084  97.041 135.242  0.00  0.00    +0.000 C 
ATOM      9  C8  UNL     1      -0.368  97.475 135.521  0.00  0.00    +0.000 C 
ATOM     10  C9  UNL     1       1.341  97.029 133.722  0.00  0.00    +0.000 C 
ENDROOT
TORSDOF 0
ENDMDL
MODEL 4
REMARK VINA RESULT:      -3.7      0.488      2.558
REMARK  Name = .\Carvone.pdb
REMARK  3 active torsions:
REMARK  status: ('A' for Active; 'I' for Inactive)
REMARK    1  A    between atoms: C1_1  and  C2_2
REMARK    2  A    between atoms: C7_8  and  C8_9
REMARK    3  A    between atoms: C7_8  and  C9_10
REMARK                            x       y       z     vdW  Elec       q    Type
REMARK                         _______ _______ _______ _____ _____    ______ ____
ROOT
ATOM      1  C1  UNL     1       3.871  94.491 141.047  0.00  0.00    +0.000 C 
ATOM      2  C2  UNL     1       2.703  93.642 140.606  0.00  0.00    +0.000 C 
ATOM      3  C3  UNL     1       2.391  93.655 139.301  0.00  0.00    +0.000 C 
ATOM      4  C4  UNL     1       1.275  92.864 138.779  0.00  0.00    +0.000 C 
ATOM      5  O1  UNL     1       1.001  92.891 137.550  0.00  0.00    +0.000 OA
ATOM      6  C5  UNL     1       0.482  92.043 139.689  0.00  0.00    +0.000 C 
ATOM      7  C6  UNL     1       0.767  92.009 140.991  0.00  0.00    +0.000 C 
ATOM      8  C7  UNL     1       1.908  92.798 141.622  0.00  0.00    +0.000 C 
ATOM      9  C8  UNL     1       1.290  93.724 142.688  0.00  0.00    +0.000 C 
ATOM     10  C9  UNL     1       2.850  91.782 142.297  0.00  0.00    +0.000 C 
ENDROOT
TORSDOF 0
ENDMDL
MODEL 5
REMARK VINA RESULT:      -3.7      1.130      2.595
REMARK  Name = .\Carvone.pdb
REMARK  3 active torsions:
REMARK  status: ('A' for Active; 'I' for Inactive)
REMARK    1  A    between atoms: C1_1  and  C2_2
REMARK    2  A    between atoms: C7_8  and  C8_9
REMARK    3  A    between atoms: C7_8  and  C9_10
REMARK                            x       y       z     vdW  Elec       q    Type
REMARK                         _______ _______ _______ _____ _____    ______ ____
ROOT
ATOM      1  C1  UNL     1       2.735  93.044 143.128  0.00  0.00    +0.000 C 
ATOM      2  C2  UNL     1       2.169  92.885 141.738  0.00  0.00    +0.000 C 
ATOM      3  C3  UNL     1       2.820  93.496 140.735  0.00  0.00    +0.000 C 
ATOM      4  C4  UNL     1       2.348  93.400 139.353  0.00  0.00    +0.000 C 
ATOM      5  O1  UNL     1       2.974  93.981 138.428  0.00  0.00    +0.000 OA
ATOM      6  C5  UNL     1       1.147  92.626 139.051  0.00  0.00    +0.000 C 
ATOM      7  C6  UNL     1       0.479  92.007 140.024  0.00  0.00    +0.000 C 
ATOM      8  C7  UNL     1       0.896  92.052 141.490  0.00  0.00    +0.000 C 
ATOM      9  C8  UNL     1      -0.279  92.660 142.282  0.00  0.00    +0.000 C 
ATOM     10  C9  UNL     1       1.135  90.599 141.943  0.00  0.00    +0.000 C 
ENDROOT
TORSDOF 0
ENDMDL
MODEL 6
REMARK VINA RESULT:      -3.6      2.013      3.184
REMARK  Name = .\Carvone.pdb
REMARK  3 active torsions:
REMARK  status: ('A' for Active; 'I' for Inactive)
REMARK    1  A    between atoms: C1_1  and  C2_2
REMARK    2  A    between atoms: C7_8  and  C8_9
REMARK    3  A    between atoms: C7_8  and  C9_10
REMARK                            x       y       z     vdW  Elec       q    Type
REMARK                         _______ _______ _______ _____ _____    ______ ____
ROOT
ATOM      1  C1  UNL     1       1.904  90.006 143.402  0.00  0.00    +0.000 C 
ATOM      2  C2  UNL     1       1.889  91.178 142.450  0.00  0.00    +0.000 C 
ATOM      3  C3  UNL     1       3.034  91.861 142.297  0.00  0.00    +0.000 C 
ATOM      4  C4  UNL     1       3.118  93.012 141.396  0.00  0.00    +0.000 C 
ATOM      5  O1  UNL     1       4.203  93.638 141.268  0.00  0.00    +0.000 OA
ATOM      6  C5  UNL     1       1.937  93.431 140.647  0.00  0.00    +0.000 C 
ATOM      7  C6  UNL     1       0.785  92.773 140.777  0.00  0.00    +0.000 C 
ATOM      8  C7  UNL     1       0.606  91.565 141.690  0.00  0.00    +0.000 C 
ATOM      9  C8  UNL     1      -0.505  91.916 142.700  0.00  0.00    +0.000 C 
ATOM     10  C9  UNL     1       0.154  90.386 140.807  0.00  0.00    +0.000 C 
ENDROOT
TORSDOF 0
ENDMDL
MODEL 7
REMARK VINA RESULT:      -3.5      5.435      7.198
REMARK  Name = .\Carvone.pdb
REMARK  3 active torsions:
REMARK  status: ('A' for Active; 'I' for Inactive)
REMARK    1  A    between atoms: C1_1  and  C2_2
REMARK    2  A    between atoms: C7_8  and  C8_9
REMARK    3  A    between atoms: C7_8  and  C9_10
REMARK                            x       y       z     vdW  Elec       q    Type
REMARK                         _______ _______ _______ _____ _____    ______ ____
ROOT
ATOM      1  C1  UNL     1       3.117  97.508 136.764  0.00  0.00    +0.000 C 
ATOM      2  C2  UNL     1       2.121  96.795 135.881  0.00  0.00    +0.000 C 
ATOM      3  C3  UNL     1       1.738  95.564 136.255  0.00  0.00    +0.000 C 
ATOM      4  C4  UNL     1       0.776  94.794 135.464  0.00  0.00    +0.000 C 
ATOM      5  O1  UNL     1       0.431  93.641 135.834  0.00  0.00    +0.000 OA
ATOM      6  C5  UNL     1       0.219  95.369 134.243  0.00  0.00    +0.000 C 
ATOM      7  C6  UNL     1       0.579  96.590 133.846  0.00  0.00    +0.000 C 
ATOM      8  C7  UNL     1       1.572  97.462 134.605  0.00  0.00    +0.000 C 
ATOM      9  C8  UNL     1       2.737  97.772 133.644  0.00  0.00    +0.000 C 
ATOM     10  C9  UNL     1       0.843  98.768 134.979  0.00  0.00    +0.000 C 
ENDROOT
TORSDOF 0
ENDMDL
MODEL 8
REMARK VINA RESULT:      -3.5      1.072      1.299
REMARK  Name = .\Carvone.pdb
REMARK  3 active torsions:
REMARK  status: ('A' for Active; 'I' for Inactive)
REMARK    1  A    between atoms: C1_1  and  C2_2
REMARK    2  A    between atoms: C7_8  and  C8_9
REMARK    3  A    between atoms: C7_8  and  C9_10
REMARK                            x       y       z     vdW  Elec       q    Type
REMARK                         _______ _______ _______ _____ _____    ______ ____
ROOT
ATOM      1  C1  UNL     1       0.122  91.360 140.352  0.00  0.00    +0.000 C 
ATOM      2  C2  UNL     1       1.212  92.402 140.286  0.00  0.00    +0.000 C 
ATOM      3  C3  UNL     1       1.521  92.894 139.076  0.00  0.00    +0.000 C 
ATOM      4  C4  UNL     1       2.564  93.908 138.911  0.00  0.00    +0.000 C 
ATOM      5  O1  UNL     1       2.837  94.356 137.766  0.00  0.00    +0.000 OA
ATOM      6  C5  UNL     1       3.286  94.399 140.081  0.00  0.00    +0.000 C 
ATOM      7  C6  UNL     1       3.002  93.931 141.296  0.00  0.00    +0.000 C 
ATOM      8  C7  UNL     1       1.934  92.876 141.562  0.00  0.00    +0.000 C 
ATOM      9  C8  UNL     1       2.632  91.677 142.234  0.00  0.00    +0.000 C 
ATOM     10  C9  UNL     1       0.910  93.495 142.534  0.00  0.00    +0.000 C 
ENDROOT
TORSDOF 0
ENDMDL
MODEL 9
REMARK VINA RESULT:      -3.4      2.408      3.395
REMARK  Name = .\Carvone.pdb
REMARK  3 active torsions:
REMARK  status: ('A' for Active; 'I' for Inactive)
REMARK    1  A    between atoms: C1_1  and  C2_2
REMARK    2  A    between atoms: C7_8  and  C8_9
REMARK    3  A    between atoms: C7_8  and  C9_10
REMARK                            x       y       z     vdW  Elec       q    Type
REMARK                         _______ _______ _______ _____ _____    ______ ____
ROOT
ATOM      1  C1  UNL     1       0.097  90.366 141.764  0.00  0.00    +0.000 C 
ATOM      2  C2  UNL     1       1.281  91.301 141.785  0.00  0.00    +0.000 C 
ATOM      3  C3  UNL     1       2.382  90.886 142.432  0.00  0.00    +0.000 C 
ATOM      4  C4  UNL     1       3.581  91.723 142.506  0.00  0.00    +0.000 C 
ATOM      5  O1  UNL     1       4.602  91.313 143.118  0.00  0.00    +0.000 OA
ATOM      6  C5  UNL     1       3.587  93.036 141.867  0.00  0.00    +0.000 C 
ATOM      7  C6  UNL     1       2.509  93.476 141.217  0.00  0.00    +0.000 C 
ATOM      8  C7  UNL     1       1.219  92.675 141.089  0.00  0.00    +0.000 C 
ATOM      9  C8  UNL     1       0.091  93.519 141.714  0.00  0.00    +0.000 C 
ATOM     10  C9  UNL     1       0.950  92.478 139.584  0.00  0.00    +0.000 C 
ENDROOT
TORSDOF 0
ENDMDL
