MODEL 1
REMARK VINA RESULT:      -4.2      0.000      0.000
REMARK  Name = .\Carvone.pdb
REMARK  3 active torsions:
REMARK  status: ('A' for Active; 'I' for Inactive)
REMARK    1  A    between atoms: C1_1  and  C2_2
REMARK    2  A    between atoms: C7_8  and  C8_9
REMARK    3  A    between atoms: C7_8  and  C9_10
REMARK                            x       y       z     vdW  Elec       q    Type
REMARK                         _______ _______ _______ _____ _____    ______ ____
ROOT
ATOM      1  C1  UNL     1      10.705  48.762  20.432  0.00  0.00    +0.000 C 
ATOM      2  C2  UNL     1       9.765  49.897  20.757  0.00  0.00    +0.000 C 
ATOM      3  C3  UNL     1      10.086  50.684  21.796  0.00  0.00    +0.000 C 
ATOM      4  C4  UNL     1       9.236  51.811  22.187  0.00  0.00    +0.000 C 
ATOM      5  O1  UNL     1       9.557  52.536  23.165  0.00  0.00    +0.000 OA
ATOM      6  C5  UNL     1       8.015  52.089  21.438  0.00  0.00    +0.000 C 
ATOM      7  C6  UNL     1       7.669  51.327  20.401  0.00  0.00    +0.000 C 
ATOM      8  C7  UNL     1       8.491  50.135  19.923  0.00  0.00    +0.000 C 
ATOM      9  C8  UNL     1       7.584  48.891  20.002  0.00  0.00    +0.000 C 
ATOM     10  C9  UNL     1       8.879  50.405  18.456  0.00  0.00    +0.000 C 
ENDROOT
TORSDOF 0
ENDMDL
MODEL 2
REMARK VINA RESULT:      -4.1      1.091      2.716
REMARK  Name = .\Carvone.pdb
REMARK  3 active torsions:
REMARK  status: ('A' for Active; 'I' for Inactive)
REMARK    1  A    between atoms: C1_1  and  C2_2
REMARK    2  A    between atoms: C7_8  and  C8_9
REMARK    3  A    between atoms: C7_8  and  C9_10
REMARK                            x       y       z     vdW  Elec       q    Type
REMARK                         _______ _______ _______ _____ _____    ______ ____
ROOT
ATOM      1  C1  UNL     1       7.397  52.241  20.740  0.00  0.00    +0.000 C 
ATOM      2  C2  UNL     1       8.446  51.337  21.340  0.00  0.00    +0.000 C 
ATOM      3  C3  UNL     1       9.013  51.732  22.492  0.00  0.00    +0.000 C 
ATOM      4  C4  UNL     1      10.039  50.923  23.150  0.00  0.00    +0.000 C 
ATOM      5  O1  UNL     1      10.557  51.313  24.230  0.00  0.00    +0.000 OA
ATOM      6  C5  UNL     1      10.462  49.661  22.549  0.00  0.00    +0.000 C 
ATOM      7  C6  UNL     1       9.918  49.241  21.407  0.00  0.00    +0.000 C 
ATOM      8  C7  UNL     1       8.844  50.017  20.652  0.00  0.00    +0.000 C 
ATOM      9  C8  UNL     1       9.399  50.317  19.245  0.00  0.00    +0.000 C 
ATOM     10  C9  UNL     1       7.610  49.101  20.541  0.00  0.00    +0.000 C 
ENDROOT
TORSDOF 0
ENDMDL
MODEL 3
REMARK VINA RESULT:      -4.0      2.949      4.364
REMARK  Name = .\Carvone.pdb
REMARK  3 active torsions:
REMARK  status: ('A' for Active; 'I' for Inactive)
REMARK    1  A    between atoms: C1_1  and  C2_2
REMARK    2  A    between atoms: C7_8  and  C8_9
REMARK    3  A    between atoms: C7_8  and  C9_10
REMARK                            x       y       z     vdW  Elec       q    Type
REMARK                         _______ _______ _______ _____ _____    ______ ____
ROOT
ATOM      1  C1  UNL     1       7.626  48.036  21.276  0.00  0.00    +0.000 C 
ATOM      2  C2  UNL     1       7.727  48.667  19.909  0.00  0.00    +0.000 C 
ATOM      3  C3  UNL     1       6.948  48.164  18.939  0.00  0.00    +0.000 C 
ATOM      4  C4  UNL     1       6.976  48.710  17.581  0.00  0.00    +0.000 C 
ATOM      5  O1  UNL     1       6.235  48.221  16.687  0.00  0.00    +0.000 OA
ATOM      6  C5  UNL     1       7.866  49.823  17.267  0.00  0.00    +0.000 C 
ATOM      7  C6  UNL     1       8.652  50.345  18.209  0.00  0.00    +0.000 C 
ATOM      8  C7  UNL     1       8.690  49.842  19.647  0.00  0.00    +0.000 C 
ATOM      9  C8  UNL     1      10.137  49.397  19.939  0.00  0.00    +0.000 C 
ATOM     10  C9  UNL     1       8.316  51.028  20.558  0.00  0.00    +0.000 C 
ENDROOT
TORSDOF 0
ENDMDL
MODEL 4
REMARK VINA RESULT:      -3.9      3.384      4.977
REMARK  Name = .\Carvone.pdb
REMARK  3 active torsions:
REMARK  status: ('A' for Active; 'I' for Inactive)
REMARK    1  A    between atoms: C1_1  and  C2_2
REMARK    2  A    between atoms: C7_8  and  C8_9
REMARK    3  A    between atoms: C7_8  and  C9_10
REMARK                            x       y       z     vdW  Elec       q    Type
REMARK                         _______ _______ _______ _____ _____    ______ ____
ROOT
ATOM      1  C1  UNL     1       8.553  50.428  17.542  0.00  0.00    +0.000 C 
ATOM      2  C2  UNL     1       7.783  49.287  18.160  0.00  0.00    +0.000 C 
ATOM      3  C3  UNL     1       6.813  48.727  17.420  0.00  0.00    +0.000 C 
ATOM      4  C4  UNL     1       6.012  47.614  17.934  0.00  0.00    +0.000 C 
ATOM      5  O1  UNL     1       5.107  47.104  17.222  0.00  0.00    +0.000 OA
ATOM      6  C5  UNL     1       6.267  47.098  19.275  0.00  0.00    +0.000 C 
ATOM      7  C6  UNL     1       7.224  47.632  20.034  0.00  0.00    +0.000 C 
ATOM      8  C7  UNL     1       8.105  48.792  19.584  0.00  0.00    +0.000 C 
ATOM      9  C8  UNL     1       7.898  49.942  20.589  0.00  0.00    +0.000 C 
ATOM     10  C9  UNL     1       9.567  48.305  19.642  0.00  0.00    +0.000 C 
ENDROOT
TORSDOF 0
ENDMDL
MODEL 5
REMARK VINA RESULT:      -3.8      1.280      2.612
REMARK  Name = .\Carvone.pdb
REMARK  3 active torsions:
REMARK  status: ('A' for Active; 'I' for Inactive)
REMARK    1  A    between atoms: C1_1  and  C2_2
REMARK    2  A    between atoms: C7_8  and  C8_9
REMARK    3  A    between atoms: C7_8  and  C9_10
REMARK                            x       y       z     vdW  Elec       q    Type
REMARK                         _______ _______ _______ _____ _____    ______ ____
ROOT
ATOM      1  C1  UNL     1       7.395  49.590  18.275  0.00  0.00    +0.000 C 
ATOM      2  C2  UNL     1       8.003  49.844  19.633  0.00  0.00    +0.000 C 
ATOM      3  C3  UNL     1       8.105  51.122  20.032  0.00  0.00    +0.000 C 
ATOM      4  C4  UNL     1       8.680  51.468  21.333  0.00  0.00    +0.000 C 
ATOM      5  O1  UNL     1       8.765  52.674  21.686  0.00  0.00    +0.000 OA
ATOM      6  C5  UNL     1       9.154  50.410  22.219  0.00  0.00    +0.000 C 
ATOM      7  C6  UNL     1       9.066  49.131  21.852  0.00  0.00    +0.000 C 
ATOM      8  C7  UNL     1       8.483  48.678  20.518  0.00  0.00    +0.000 C 
ATOM      9  C8  UNL     1       9.584  47.891  19.781  0.00  0.00    +0.000 C 
ATOM     10  C9  UNL     1       7.296  47.745  20.831  0.00  0.00    +0.000 C 
ENDROOT
TORSDOF 0
ENDMDL
MODEL 6
REMARK VINA RESULT:      -3.7      1.284      1.503
REMARK  Name = .\Carvone.pdb
REMARK  3 active torsions:
REMARK  status: ('A' for Active; 'I' for Inactive)
REMARK    1  A    between atoms: C1_1  and  C2_2
REMARK    2  A    between atoms: C7_8  and  C8_9
REMARK    3  A    between atoms: C7_8  and  C9_10
REMARK                            x       y       z     vdW  Elec       q    Type
REMARK                         _______ _______ _______ _____ _____    ______ ____
ROOT
ATOM      1  C1  UNL     1       9.734  47.870  22.501  0.00  0.00    +0.000 C 
ATOM      2  C2  UNL     1       9.180  49.068  21.768  0.00  0.00    +0.000 C 
ATOM      3  C3  UNL     1       9.359  50.272  22.334  0.00  0.00    +0.000 C 
ATOM      4  C4  UNL     1       8.858  51.492  21.699  0.00  0.00    +0.000 C 
ATOM      5  O1  UNL     1       9.037  52.611  22.248  0.00  0.00    +0.000 OA
ATOM      6  C5  UNL     1       8.148  51.406  20.426  0.00  0.00    +0.000 C 
ATOM      7  C6  UNL     1       7.955  50.225  19.839  0.00  0.00    +0.000 C 
ATOM      8  C7  UNL     1       8.441  48.904  20.426  0.00  0.00    +0.000 C 
ATOM      9  C8  UNL     1       7.202  48.009  20.626  0.00  0.00    +0.000 C 
ATOM     10  C9  UNL     1       9.386  48.263  19.392  0.00  0.00    +0.000 C 
ENDROOT
TORSDOF 0
ENDMDL
MODEL 7
REMARK VINA RESULT:      -3.6      1.768      2.788
REMARK  Name = .\Carvone.pdb
REMARK  3 active torsions:
REMARK  status: ('A' for Active; 'I' for Inactive)
REMARK    1  A    between atoms: C1_1  and  C2_2
REMARK    2  A    between atoms: C7_8  and  C8_9
REMARK    3  A    between atoms: C7_8  and  C9_10
REMARK                            x       y       z     vdW  Elec       q    Type
REMARK                         _______ _______ _______ _____ _____    ______ ____
ROOT
ATOM      1  C1  UNL     1       9.487  50.420  17.302  0.00  0.00    +0.000 C 
ATOM      2  C2  UNL     1       8.868  49.840  18.551  0.00  0.00    +0.000 C 
ATOM      3  C3  UNL     1       9.153  50.443  19.716  0.00  0.00    +0.000 C 
ATOM      4  C4  UNL     1       8.600  49.953  20.980  0.00  0.00    +0.000 C 
ATOM      5  O1  UNL     1       8.880  50.535  22.061  0.00  0.00    +0.000 OA
ATOM      6  C5  UNL     1       7.721  48.788  20.982  0.00  0.00    +0.000 C 
ATOM      7  C6  UNL     1       7.418  48.168  19.841  0.00  0.00    +0.000 C 
ATOM      8  C7  UNL     1       7.947  48.606  18.480  0.00  0.00    +0.000 C 
ATOM      9  C8  UNL     1       8.726  47.416  17.886  0.00  0.00    +0.000 C 
ATOM     10  C9  UNL     1       6.727  48.924  17.595  0.00  0.00    +0.000 C 
ENDROOT
TORSDOF 0
ENDMDL
MODEL 8
REMARK VINA RESULT:      -3.6      2.543      3.588
REMARK  Name = .\Carvone.pdb
REMARK  3 active torsions:
REMARK  status: ('A' for Active; 'I' for Inactive)
REMARK    1  A    between atoms: C1_1  and  C2_2
REMARK    2  A    between atoms: C7_8  and  C8_9
REMARK    3  A    between atoms: C7_8  and  C9_10
REMARK                            x       y       z     vdW  Elec       q    Type
REMARK                         _______ _______ _______ _____ _____    ______ ____
ROOT
ATOM      1  C1  UNL     1      10.120  49.001  21.463  0.00  0.00    +0.000 C 
ATOM      2  C2  UNL     1       9.698  49.374  20.063  0.00  0.00    +0.000 C 
ATOM      3  C3  UNL     1      10.647  49.375  19.113  0.00  0.00    +0.000 C 
ATOM      4  C4  UNL     1      10.334  49.723  17.726  0.00  0.00    +0.000 C 
ATOM      5  O1  UNL     1      11.240  49.717  16.852  0.00  0.00    +0.000 OA
ATOM      6  C5  UNL     1       8.966  50.078  17.361  0.00  0.00    +0.000 C 
ATOM      7  C6  UNL     1       8.001  50.086  18.281  0.00  0.00    +0.000 C 
ATOM      8  C7  UNL     1       8.234  49.738  19.747  0.00  0.00    +0.000 C 
ATOM      9  C8  UNL     1       7.817  50.966  20.581  0.00  0.00    +0.000 C 
ATOM     10  C9  UNL     1       7.322  48.543  20.085  0.00  0.00    +0.000 C 
ENDROOT
TORSDOF 0
ENDMDL
MODEL 9
REMARK VINA RESULT:      -3.5      1.681      1.968
REMARK  Name = .\Carvone.pdb
REMARK  3 active torsions:
REMARK  status: ('A' for Active; 'I' for Inactive)
REMARK    1  A    between atoms: C1_1  and  C2_2
REMARK    2  A    between atoms: C7_8  and  C8_9
REMARK    3  A    between atoms: C7_8  and  C9_10
REMARK                            x       y       z     vdW  Elec       q    Type
REMARK                         _______ _______ _______ _____ _____    ______ ____
ROOT
ATOM      1  C1  UNL     1       9.647  47.316  18.695  0.00  0.00    +0.000 C 
ATOM      2  C2  UNL     1       9.213  48.539  19.465  0.00  0.00    +0.000 C 
ATOM      3  C3  UNL     1       9.433  48.544  20.789  0.00  0.00    +0.000 C 
ATOM      4  C4  UNL     1       9.047  49.685  21.620  0.00  0.00    +0.000 C 
ATOM      5  O1  UNL     1       9.263  49.667  22.861  0.00  0.00    +0.000 OA
ATOM      6  C5  UNL     1       8.410  50.846  21.004  0.00  0.00    +0.000 C 
ATOM      7  C6  UNL     1       8.179  50.872  19.692  0.00  0.00    +0.000 C 
ATOM      8  C7  UNL     1       8.546  49.731  18.750  0.00  0.00    +0.000 C 
ATOM      9  C8  UNL     1       7.244  49.260  18.071  0.00  0.00    +0.000 C 
ATOM     10  C9  UNL     1       9.509  50.302  17.692  0.00  0.00    +0.000 C 
ENDROOT
TORSDOF 0
ENDMDL
