MODEL 1
REMARK VINA RESULT:      -3.8      0.000      0.000
REMARK  Name = .\Carvacrol.pdb
REMARK  5 active torsions:
REMARK  status: ('A' for Active; 'I' for Inactive)
REMARK    1  A    between atoms: C1_1  and  C2_2
REMARK    2  A    between atoms: C2_2  and  C3_3
REMARK    3  A    between atoms: C2_2  and  C4_4
REMARK    4  A    between atoms: C6_6  and  O1_11
REMARK    5  A    between atoms: C7_7  and  C10_10
REMARK                            x       y       z     vdW  Elec       q    Type
REMARK                         _______ _______ _______ _____ _____    ______ ____
ROOT
ATOM      1  C4  UNL     1     -20.596  73.152  93.699  0.00  0.00    +0.000 A 
ATOM      2  C5  UNL     1     -20.829  72.092  94.593  0.00  0.00    +0.000 A 
ATOM      3  C6  UNL     1     -21.018  72.338  95.961  0.00  0.00    +0.000 A 
ATOM      4  C7  UNL     1     -20.974  73.654  96.451  0.00  0.00    +0.000 A 
ATOM      5  C8  UNL     1     -20.742  74.714  95.560  0.00  0.00    +0.000 A 
ATOM      6  C9  UNL     1     -20.555  74.466  94.198  0.00  0.00    +0.000 A 
ATOM      7  C10 UNL     1     -21.176  73.925  97.914  0.00  0.00    +0.000 C 
ENDROOT
BRANCH   1   9
ATOM      8  C1  UNL     1     -18.903  72.763  91.879  0.00  0.00    +0.000 C 
ATOM      9  C2  UNL     1     -20.394  72.868  92.222  0.00  0.00    +0.000 C 
ATOM     10  C3  UNL     1     -21.150  71.605  91.793  0.00  0.00    +0.000 C 
ENDBRANCH   1   9
BRANCH   3  11
ATOM     11  O1  UNL     1     -21.247  71.275  96.836  0.00  0.00    +0.000 OA
ATOM     12  H14 UNL     1     -20.868  70.351  96.661  0.00  0.00    +0.000 HD
ENDBRANCH   3  11
TORSDOF 2
ENDMDL
MODEL 2
REMARK VINA RESULT:      -3.7      2.885      4.297
REMARK  Name = .\Carvacrol.pdb
REMARK  5 active torsions:
REMARK  status: ('A' for Active; 'I' for Inactive)
REMARK    1  A    between atoms: C1_1  and  C2_2
REMARK    2  A    between atoms: C2_2  and  C3_3
REMARK    3  A    between atoms: C2_2  and  C4_4
REMARK    4  A    between atoms: C6_6  and  O1_11
REMARK    5  A    between atoms: C7_7  and  C10_10
REMARK                            x       y       z     vdW  Elec       q    Type
REMARK                         _______ _______ _______ _____ _____    ______ ____
ROOT
ATOM      1  C4  UNL     1     -20.317  73.260  93.410  0.00  0.00    +0.000 A 
ATOM      2  C5  UNL     1     -19.779  73.250  92.112  0.00  0.00    +0.000 A 
ATOM      3  C6  UNL     1     -19.056  74.350  91.627  0.00  0.00    +0.000 A 
ATOM      4  C7  UNL     1     -18.864  75.478  92.443  0.00  0.00    +0.000 A 
ATOM      5  C8  UNL     1     -19.401  75.491  93.740  0.00  0.00    +0.000 A 
ATOM      6  C9  UNL     1     -20.120  74.394  94.219  0.00  0.00    +0.000 A 
ATOM      7  C10 UNL     1     -18.091  76.660  91.931  0.00  0.00    +0.000 C 
ENDROOT
BRANCH   1   9
ATOM      8  C1  UNL     1     -20.726  70.793  93.142  0.00  0.00    +0.000 C 
ATOM      9  C2  UNL     1     -21.097  72.062  93.918  0.00  0.00    +0.000 C 
ATOM     10  C3  UNL     1     -20.893  71.868  95.425  0.00  0.00    +0.000 C 
ENDBRANCH   1   9
BRANCH   3  11
ATOM     11  O1  UNL     1     -18.528  74.325  90.336  0.00  0.00    +0.000 OA
ATOM     12  H14 UNL     1     -18.307  73.453  89.869  0.00  0.00    +0.000 HD
ENDBRANCH   3  11
TORSDOF 2
ENDMDL
MODEL 3
REMARK VINA RESULT:      -3.6      0.960      1.495
REMARK  Name = .\Carvacrol.pdb
REMARK  5 active torsions:
REMARK  status: ('A' for Active; 'I' for Inactive)
REMARK    1  A    between atoms: C1_1  and  C2_2
REMARK    2  A    between atoms: C2_2  and  C3_3
REMARK    3  A    between atoms: C2_2  and  C4_4
REMARK    4  A    between atoms: C6_6  and  O1_11
REMARK    5  A    between atoms: C7_7  and  C10_10
REMARK                            x       y       z     vdW  Elec       q    Type
REMARK                         _______ _______ _______ _____ _____    ______ ____
ROOT
ATOM      1  C4  UNL     1     -20.393  72.977  93.961  0.00  0.00    +0.000 A 
ATOM      2  C5  UNL     1     -20.782  72.477  95.216  0.00  0.00    +0.000 A 
ATOM      3  C6  UNL     1     -20.970  73.342  96.304  0.00  0.00    +0.000 A 
ATOM      4  C7  UNL     1     -20.768  74.724  96.145  0.00  0.00    +0.000 A 
ATOM      5  C8  UNL     1     -20.380  75.225  94.893  0.00  0.00    +0.000 A 
ATOM      6  C9  UNL     1     -20.194  74.361  93.812  0.00  0.00    +0.000 A 
ATOM      7  C10 UNL     1     -20.968  75.657  97.306  0.00  0.00    +0.000 C 
ENDROOT
BRANCH   1   9
ATOM      8  C1  UNL     1     -21.536  71.635  92.166  0.00  0.00    +0.000 C 
ATOM      9  C2  UNL     1     -20.194  72.027  92.794  0.00  0.00    +0.000 C 
ATOM     10  C3  UNL     1     -19.248  72.627  91.747  0.00  0.00    +0.000 C 
ENDBRANCH   1   9
BRANCH   3  11
ATOM     11  O1  UNL     1     -21.356  72.831  97.543  0.00  0.00    +0.000 OA
ATOM     12  H14 UNL     1     -20.764  72.192  98.062  0.00  0.00    +0.000 HD
ENDBRANCH   3  11
TORSDOF 2
ENDMDL
MODEL 4
REMARK VINA RESULT:      -3.5      1.660      2.886
REMARK  Name = .\Carvacrol.pdb
REMARK  5 active torsions:
REMARK  status: ('A' for Active; 'I' for Inactive)
REMARK    1  A    between atoms: C1_1  and  C2_2
REMARK    2  A    between atoms: C2_2  and  C3_3
REMARK    3  A    between atoms: C2_2  and  C4_4
REMARK    4  A    between atoms: C6_6  and  O1_11
REMARK    5  A    between atoms: C7_7  and  C10_10
REMARK                            x       y       z     vdW  Elec       q    Type
REMARK                         _______ _______ _______ _____ _____    ______ ____
ROOT
ATOM      1  C4  UNL     1     -19.732  73.186  92.764  0.00  0.00    +0.000 A 
ATOM      2  C5  UNL     1     -20.186  73.844  93.921  0.00  0.00    +0.000 A 
ATOM      3  C6  UNL     1     -20.964  73.166  94.871  0.00  0.00    +0.000 A 
ATOM      4  C7  UNL     1     -21.298  71.815  94.670  0.00  0.00    +0.000 A 
ATOM      5  C8  UNL     1     -20.846  71.157  93.516  0.00  0.00    +0.000 A 
ATOM      6  C9  UNL     1     -20.070  71.835  92.573  0.00  0.00    +0.000 A 
ATOM      7  C10 UNL     1     -22.131  71.083  95.683  0.00  0.00    +0.000 C 
ENDROOT
BRANCH   1   9
ATOM      8  C1  UNL     1     -19.684  74.197  90.461  0.00  0.00    +0.000 C 
ATOM      9  C2  UNL     1     -18.891  73.935  91.747  0.00  0.00    +0.000 C 
ATOM     10  C3  UNL     1     -18.344  75.241  92.334  0.00  0.00    +0.000 C 
ENDBRANCH   1   9
BRANCH   3  11
ATOM     11  O1  UNL     1     -21.408  73.832  96.013  0.00  0.00    +0.000 OA
ATOM     12  H14 UNL     1     -20.787  74.027  96.790  0.00  0.00    +0.000 HD
ENDBRANCH   3  11
TORSDOF 2
ENDMDL
MODEL 5
REMARK VINA RESULT:      -3.4      2.072      4.638
REMARK  Name = .\Carvacrol.pdb
REMARK  5 active torsions:
REMARK  status: ('A' for Active; 'I' for Inactive)
REMARK    1  A    between atoms: C1_1  and  C2_2
REMARK    2  A    between atoms: C2_2  and  C3_3
REMARK    3  A    between atoms: C2_2  and  C4_4
REMARK    4  A    between atoms: C6_6  and  O1_11
REMARK    5  A    between atoms: C7_7  and  C10_10
REMARK                            x       y       z     vdW  Elec       q    Type
REMARK                         _______ _______ _______ _____ _____    ______ ____
ROOT
ATOM      1  C4  UNL     1     -20.874  72.110  94.558  0.00  0.00    +0.000 A 
ATOM      2  C5  UNL     1     -20.468  73.379  94.111  0.00  0.00    +0.000 A 
ATOM      3  C6  UNL     1     -20.211  73.611  92.752  0.00  0.00    +0.000 A 
ATOM      4  C7  UNL     1     -20.358  72.568  91.821  0.00  0.00    +0.000 A 
ATOM      5  C8  UNL     1     -20.763  71.300  92.266  0.00  0.00    +0.000 A 
ATOM      6  C9  UNL     1     -21.019  71.072  93.620  0.00  0.00    +0.000 A 
ATOM      7  C10 UNL     1     -20.085  72.809  90.364  0.00  0.00    +0.000 C 
ENDROOT
BRANCH   1   9
ATOM      8  C1  UNL     1     -21.322  73.204  96.779  0.00  0.00    +0.000 C 
ATOM      9  C2  UNL     1     -21.147  71.876  96.032  0.00  0.00    +0.000 C 
ATOM     10  C3  UNL     1     -22.365  70.966  96.231  0.00  0.00    +0.000 C 
ENDBRANCH   1   9
BRANCH   3  11
ATOM     11  O1  UNL     1     -19.808  74.876  92.323  0.00  0.00    +0.000 OA
ATOM     12  H14 UNL     1     -19.064  75.383  92.790  0.00  0.00    +0.000 HD
ENDBRANCH   3  11
TORSDOF 2
ENDMDL
MODEL 6
REMARK VINA RESULT:      -3.4      1.957      2.855
REMARK  Name = .\Carvacrol.pdb
REMARK  5 active torsions:
REMARK  status: ('A' for Active; 'I' for Inactive)
REMARK    1  A    between atoms: C1_1  and  C2_2
REMARK    2  A    between atoms: C2_2  and  C3_3
REMARK    3  A    between atoms: C2_2  and  C4_4
REMARK    4  A    between atoms: C6_6  and  O1_11
REMARK    5  A    between atoms: C7_7  and  C10_10
REMARK                            x       y       z     vdW  Elec       q    Type
REMARK                         _______ _______ _______ _____ _____    ______ ____
ROOT
ATOM      1  C4  UNL     1     -19.669  73.933  93.034  0.00  0.00    +0.000 A 
ATOM      2  C5  UNL     1     -19.945  72.628  92.594  0.00  0.00    +0.000 A 
ATOM      3  C6  UNL     1     -20.703  71.751  93.384  0.00  0.00    +0.000 A 
ATOM      4  C7  UNL     1     -21.194  72.175  94.631  0.00  0.00    +0.000 A 
ATOM      5  C8  UNL     1     -20.919  73.479  95.072  0.00  0.00    +0.000 A 
ATOM      6  C9  UNL     1     -20.165  74.350  94.282  0.00  0.00    +0.000 A 
ATOM      7  C10 UNL     1     -22.005  71.242  95.483  0.00  0.00    +0.000 C 
ENDROOT
BRANCH   1   9
ATOM      8  C1  UNL     1     -19.103  74.607  90.677  0.00  0.00    +0.000 C 
ATOM      9  C2  UNL     1     -18.849  74.869  92.166  0.00  0.00    +0.000 C 
ATOM     10  C3  UNL     1     -19.120  76.336  92.522  0.00  0.00    +0.000 C 
ENDBRANCH   1   9
BRANCH   3  11
ATOM     11  O1  UNL     1     -20.968  70.457  92.935  0.00  0.00    +0.000 OA
ATOM     12  H14 UNL     1     -20.380  69.673  93.195  0.00  0.00    +0.000 HD
ENDBRANCH   3  11
TORSDOF 2
ENDMDL
MODEL 7
REMARK VINA RESULT:      -3.4      1.493      2.339
REMARK  Name = .\Carvacrol.pdb
REMARK  5 active torsions:
REMARK  status: ('A' for Active; 'I' for Inactive)
REMARK    1  A    between atoms: C1_1  and  C2_2
REMARK    2  A    between atoms: C2_2  and  C3_3
REMARK    3  A    between atoms: C2_2  and  C4_4
REMARK    4  A    between atoms: C6_6  and  O1_11
REMARK    5  A    between atoms: C7_7  and  C10_10
REMARK                            x       y       z     vdW  Elec       q    Type
REMARK                         _______ _______ _______ _____ _____    ______ ____
ROOT
ATOM      1  C4  UNL     1     -20.560  72.406  93.770  0.00  0.00    +0.000 A 
ATOM      2  C5  UNL     1     -20.342  73.760  94.074  0.00  0.00    +0.000 A 
ATOM      3  C6  UNL     1     -20.593  74.255  95.362  0.00  0.00    +0.000 A 
ATOM      4  C7  UNL     1     -21.068  73.392  96.365  0.00  0.00    +0.000 A 
ATOM      5  C8  UNL     1     -21.286  72.038  96.064  0.00  0.00    +0.000 A 
ATOM      6  C9  UNL     1     -21.034  71.550  94.780  0.00  0.00    +0.000 A 
ATOM      7  C10 UNL     1     -21.339  73.914  97.747  0.00  0.00    +0.000 C 
ENDROOT
BRANCH   1   9
ATOM      8  C1  UNL     1     -21.589  71.608  91.617  0.00  0.00    +0.000 C 
ATOM      9  C2  UNL     1     -20.283  71.888  92.371  0.00  0.00    +0.000 C 
ATOM     10  C3  UNL     1     -19.391  72.858  91.588  0.00  0.00    +0.000 C 
ENDBRANCH   1   9
BRANCH   3  11
ATOM     11  O1  UNL     1     -20.373  75.602  95.648  0.00  0.00    +0.000 OA
ATOM     12  H14 UNL     1     -19.950  76.227  94.971  0.00  0.00    +0.000 HD
ENDBRANCH   3  11
TORSDOF 2
ENDMDL
MODEL 8
REMARK VINA RESULT:      -3.3      1.537      2.831
REMARK  Name = .\Carvacrol.pdb
REMARK  5 active torsions:
REMARK  status: ('A' for Active; 'I' for Inactive)
REMARK    1  A    between atoms: C1_1  and  C2_2
REMARK    2  A    between atoms: C2_2  and  C3_3
REMARK    3  A    between atoms: C2_2  and  C4_4
REMARK    4  A    between atoms: C6_6  and  O1_11
REMARK    5  A    between atoms: C7_7  and  C10_10
REMARK                            x       y       z     vdW  Elec       q    Type
REMARK                         _______ _______ _______ _____ _____    ______ ____
ROOT
ATOM      1  C4  UNL     1     -20.358  74.139  94.757  0.00  0.00    +0.000 A 
ATOM      2  C5  UNL     1     -20.789  74.154  96.094  0.00  0.00    +0.000 A 
ATOM      3  C6  UNL     1     -21.443  73.044  96.649  0.00  0.00    +0.000 A 
ATOM      4  C7  UNL     1     -21.675  71.901  95.864  0.00  0.00    +0.000 A 
ATOM      5  C8  UNL     1     -21.245  71.884  94.527  0.00  0.00    +0.000 A 
ATOM      6  C9  UNL     1     -20.594  72.991  93.979  0.00  0.00    +0.000 A 
ATOM      7  C10 UNL     1     -22.375  70.708  96.450  0.00  0.00    +0.000 C 
ENDROOT
BRANCH   1   9
ATOM      8  C1  UNL     1     -18.764  74.951  92.988  0.00  0.00    +0.000 C 
ATOM      9  C2  UNL     1     -19.652  75.348  94.173  0.00  0.00    +0.000 C 
ATOM     10  C3  UNL     1     -20.656  76.435  93.771  0.00  0.00    +0.000 C 
ENDBRANCH   1   9
BRANCH   3  11
ATOM     11  O1  UNL     1     -21.866  73.074  97.978  0.00  0.00    +0.000 OA
ATOM     12  H14 UNL     1     -21.322  73.535  98.698  0.00  0.00    +0.000 HD
ENDBRANCH   3  11
TORSDOF 2
ENDMDL
MODEL 9
REMARK VINA RESULT:      -3.2      1.564      4.154
REMARK  Name = .\Carvacrol.pdb
REMARK  5 active torsions:
REMARK  status: ('A' for Active; 'I' for Inactive)
REMARK    1  A    between atoms: C1_1  and  C2_2
REMARK    2  A    between atoms: C2_2  and  C3_3
REMARK    3  A    between atoms: C2_2  and  C4_4
REMARK    4  A    between atoms: C6_6  and  O1_11
REMARK    5  A    between atoms: C7_7  and  C10_10
REMARK                            x       y       z     vdW  Elec       q    Type
REMARK                         _______ _______ _______ _____ _____    ______ ____
ROOT
ATOM      1  C4  UNL     1     -20.959  73.135  95.517  0.00  0.00    +0.000 A 
ATOM      2  C5  UNL     1     -21.131  71.884  94.901  0.00  0.00    +0.000 A 
ATOM      3  C6  UNL     1     -20.775  71.693  93.558  0.00  0.00    +0.000 A 
ATOM      4  C7  UNL     1     -20.241  72.759  92.814  0.00  0.00    +0.000 A 
ATOM      5  C8  UNL     1     -20.068  74.010  93.428  0.00  0.00    +0.000 A 
ATOM      6  C9  UNL     1     -20.423  74.196  94.766  0.00  0.00    +0.000 A 
ATOM      7  C10 UNL     1     -19.858  72.562  91.375  0.00  0.00    +0.000 C 
ENDROOT
BRANCH   1   9
ATOM      8  C1  UNL     1     -21.271  74.801  97.376  0.00  0.00    +0.000 C 
ATOM      9  C2  UNL     1     -21.349  73.325  96.972  0.00  0.00    +0.000 C 
ATOM     10  C3  UNL     1     -22.742  72.748  97.251  0.00  0.00    +0.000 C 
ENDBRANCH   1   9
BRANCH   3  11
ATOM     11  O1  UNL     1     -20.953  70.445  92.959  0.00  0.00    +0.000 OA
ATOM     12  H14 UNL     1     -21.875  70.049  92.820  0.00  0.00    +0.000 HD
ENDBRANCH   3  11
TORSDOF 2
ENDMDL
