MODEL 1
REMARK VINA RESULT:      -4.9      0.000      0.000
REMARK  Name = .\Carvacrol.pdb
REMARK  5 active torsions:
REMARK  status: ('A' for Active; 'I' for Inactive)
REMARK    1  A    between atoms: C1_1  and  C2_2
REMARK    2  A    between atoms: C2_2  and  C3_3
REMARK    3  A    between atoms: C2_2  and  C4_4
REMARK    4  A    between atoms: C6_6  and  O1_11
REMARK    5  A    between atoms: C7_7  and  C10_10
REMARK                            x       y       z     vdW  Elec       q    Type
REMARK                         _______ _______ _______ _____ _____    ______ ____
ROOT
ATOM      1  C4  UNL     1       1.555  82.855  82.238  0.00  0.00    +0.000 A 
ATOM      2  C5  UNL     1       2.927  82.747  81.953  0.00  0.00    +0.000 A 
ATOM      3  C6  UNL     1       3.639  83.839  81.436  0.00  0.00    +0.000 A 
ATOM      4  C7  UNL     1       2.980  85.058  81.196  0.00  0.00    +0.000 A 
ATOM      5  C8  UNL     1       1.610  85.168  81.480  0.00  0.00    +0.000 A 
ATOM      6  C9  UNL     1       0.904  84.078  81.995  0.00  0.00    +0.000 A 
ATOM      7  C10 UNL     1       3.736  86.231  80.642  0.00  0.00    +0.000 C 
ENDROOT
BRANCH   1   9
ATOM      8  C1  UNL     1       0.839  81.655  84.330  0.00  0.00    +0.000 C 
ATOM      9  C2  UNL     1       0.800  81.664  82.797  0.00  0.00    +0.000 C 
ATOM     10  C3  UNL     1      -0.644  81.631  82.281  0.00  0.00    +0.000 C 
ENDBRANCH   1   9
BRANCH   3  11
ATOM     11  O1  UNL     1       5.001  83.717  81.158  0.00  0.00    +0.000 OA
ATOM     12  H14 UNL     1       5.512  84.446  80.673  0.00  0.00    +0.000 HD
ENDBRANCH   3  11
TORSDOF 2
ENDMDL
MODEL 2
REMARK VINA RESULT:      -4.8     11.520     12.254
REMARK  Name = .\Carvacrol.pdb
REMARK  5 active torsions:
REMARK  status: ('A' for Active; 'I' for Inactive)
REMARK    1  A    between atoms: C1_1  and  C2_2
REMARK    2  A    between atoms: C2_2  and  C3_3
REMARK    3  A    between atoms: C2_2  and  C4_4
REMARK    4  A    between atoms: C6_6  and  O1_11
REMARK    5  A    between atoms: C7_7  and  C10_10
REMARK                            x       y       z     vdW  Elec       q    Type
REMARK                         _______ _______ _______ _____ _____    ______ ____
ROOT
ATOM      1  C4  UNL     1      -6.928  76.135  83.243  0.00  0.00    +0.000 A 
ATOM      2  C5  UNL     1      -8.145  76.742  83.598  0.00  0.00    +0.000 A 
ATOM      3  C6  UNL     1      -8.778  77.640  82.726  0.00  0.00    +0.000 A 
ATOM      4  C7  UNL     1      -8.194  77.943  81.484  0.00  0.00    +0.000 A 
ATOM      5  C8  UNL     1      -6.979  77.338  81.128  0.00  0.00    +0.000 A 
ATOM      6  C9  UNL     1      -6.352  76.443  81.998  0.00  0.00    +0.000 A 
ATOM      7  C10 UNL     1      -8.866  78.904  80.546  0.00  0.00    +0.000 C 
ENDROOT
BRANCH   1   9
ATOM      8  C1  UNL     1      -7.175  73.978  84.515  0.00  0.00    +0.000 C 
ATOM      9  C2  UNL     1      -6.257  75.165  84.197  0.00  0.00    +0.000 C 
ATOM     10  C3  UNL     1      -4.909  74.688  83.644  0.00  0.00    +0.000 C 
ENDBRANCH   1   9
BRANCH   3  11
ATOM     11  O1  UNL     1      -9.985  78.235  83.093  0.00  0.00    +0.000 OA
ATOM     12  H14 UNL     1     -10.681  77.735  83.634  0.00  0.00    +0.000 HD
ENDBRANCH   3  11
TORSDOF 2
ENDMDL
MODEL 3
REMARK VINA RESULT:      -4.6      4.010      6.614
REMARK  Name = .\Carvacrol.pdb
REMARK  5 active torsions:
REMARK  status: ('A' for Active; 'I' for Inactive)
REMARK    1  A    between atoms: C1_1  and  C2_2
REMARK    2  A    between atoms: C2_2  and  C3_3
REMARK    3  A    between atoms: C2_2  and  C4_4
REMARK    4  A    between atoms: C6_6  and  O1_11
REMARK    5  A    between atoms: C7_7  and  C10_10
REMARK                            x       y       z     vdW  Elec       q    Type
REMARK                         _______ _______ _______ _____ _____    ______ ____
ROOT
ATOM      1  C4  UNL     1      -0.905  79.637  82.112  0.00  0.00    +0.000 A 
ATOM      2  C5  UNL     1       0.081  79.448  83.095  0.00  0.00    +0.000 A 
ATOM      3  C6  UNL     1       0.374  78.165  83.579  0.00  0.00    +0.000 A 
ATOM      4  C7  UNL     1      -0.323  77.050  83.080  0.00  0.00    +0.000 A 
ATOM      5  C8  UNL     1      -1.308  77.236  82.098  0.00  0.00    +0.000 A 
ATOM      6  C9  UNL     1      -1.597  78.516  81.618  0.00  0.00    +0.000 A 
ATOM      7  C10 UNL     1      -0.014  75.673  83.593  0.00  0.00    +0.000 C 
ENDROOT
BRANCH   1   9
ATOM      8  C1  UNL     1      -0.199  82.052  82.140  0.00  0.00    +0.000 C 
ATOM      9  C2  UNL     1      -1.209  81.033  81.600  0.00  0.00    +0.000 C 
ATOM     10  C3  UNL     1      -1.258  81.061  80.068  0.00  0.00    +0.000 C 
ENDBRANCH   1   9
BRANCH   3  11
ATOM     11  O1  UNL     1       1.355  77.994  84.556  0.00  0.00    +0.000 OA
ATOM     12  H14 UNL     1       1.145  77.567  85.451  0.00  0.00    +0.000 HD
ENDBRANCH   3  11
TORSDOF 2
ENDMDL
MODEL 4
REMARK VINA RESULT:      -4.5     11.151     11.839
REMARK  Name = .\Carvacrol.pdb
REMARK  5 active torsions:
REMARK  status: ('A' for Active; 'I' for Inactive)
REMARK    1  A    between atoms: C1_1  and  C2_2
REMARK    2  A    between atoms: C2_2  and  C3_3
REMARK    3  A    between atoms: C2_2  and  C4_4
REMARK    4  A    between atoms: C6_6  and  O1_11
REMARK    5  A    between atoms: C7_7  and  C10_10
REMARK                            x       y       z     vdW  Elec       q    Type
REMARK                         _______ _______ _______ _____ _____    ______ ____
ROOT
ATOM      1  C4  UNL     1      -6.947  76.160  83.248  0.00  0.00    +0.000 A 
ATOM      2  C5  UNL     1      -6.362  76.456  82.005  0.00  0.00    +0.000 A 
ATOM      3  C6  UNL     1      -6.975  77.357  81.122  0.00  0.00    +0.000 A 
ATOM      4  C7  UNL     1      -8.187  77.973  81.476  0.00  0.00    +0.000 A 
ATOM      5  C8  UNL     1      -8.774  77.679  82.717  0.00  0.00    +0.000 A 
ATOM      6  C9  UNL     1      -8.160  76.781  83.594  0.00  0.00    +0.000 A 
ATOM      7  C10 UNL     1      -8.849  78.939  80.535  0.00  0.00    +0.000 C 
ENDROOT
BRANCH   1   9
ATOM      8  C1  UNL     1      -7.184  73.990  84.500  0.00  0.00    +0.000 C 
ATOM      9  C2  UNL     1      -6.271  75.183  84.192  0.00  0.00    +0.000 C 
ATOM     10  C3  UNL     1      -4.922  74.716  83.631  0.00  0.00    +0.000 C 
ENDBRANCH   1   9
BRANCH   3  11
ATOM     11  O1  UNL     1      -6.382  77.640  79.891  0.00  0.00    +0.000 OA
ATOM     12  H14 UNL     1      -5.386  77.523  79.741  0.00  0.00    +0.000 HD
ENDBRANCH   3  11
TORSDOF 2
ENDMDL
MODEL 5
REMARK VINA RESULT:      -4.5      1.639      2.183
REMARK  Name = .\Carvacrol.pdb
REMARK  5 active torsions:
REMARK  status: ('A' for Active; 'I' for Inactive)
REMARK    1  A    between atoms: C1_1  and  C2_2
REMARK    2  A    between atoms: C2_2  and  C3_3
REMARK    3  A    between atoms: C2_2  and  C4_4
REMARK    4  A    between atoms: C6_6  and  O1_11
REMARK    5  A    between atoms: C7_7  and  C10_10
REMARK                            x       y       z     vdW  Elec       q    Type
REMARK                         _______ _______ _______ _____ _____    ______ ____
ROOT
ATOM      1  C4  UNL     1       1.173  81.899  81.961  0.00  0.00    +0.000 A 
ATOM      2  C5  UNL     1       2.347  82.606  82.274  0.00  0.00    +0.000 A 
ATOM      3  C6  UNL     1       3.152  83.143  81.259  0.00  0.00    +0.000 A 
ATOM      4  C7  UNL     1       2.788  82.977  79.912  0.00  0.00    +0.000 A 
ATOM      5  C8  UNL     1       1.616  82.272  79.596  0.00  0.00    +0.000 A 
ATOM      6  C9  UNL     1       0.816  81.739  80.610  0.00  0.00    +0.000 A 
ATOM      7  C10 UNL     1       3.646  83.550  78.820  0.00  0.00    +0.000 C 
ENDROOT
BRANCH   1   9
ATOM      8  C1  UNL     1       0.109  79.816  82.887  0.00  0.00    +0.000 C 
ATOM      9  C2  UNL     1       0.314  81.325  83.071  0.00  0.00    +0.000 C 
ATOM     10  C3  UNL     1       0.909  81.637  84.449  0.00  0.00    +0.000 C 
ENDBRANCH   1   9
BRANCH   3  11
ATOM     11  O1  UNL     1       4.315  83.841  81.586  0.00  0.00    +0.000 OA
ATOM     12  H14 UNL     1       4.789  84.431  80.911  0.00  0.00    +0.000 HD
ENDBRANCH   3  11
TORSDOF 2
ENDMDL
MODEL 6
REMARK VINA RESULT:      -4.5      7.833     10.273
REMARK  Name = .\Carvacrol.pdb
REMARK  5 active torsions:
REMARK  status: ('A' for Active; 'I' for Inactive)
REMARK    1  A    between atoms: C1_1  and  C2_2
REMARK    2  A    between atoms: C2_2  and  C3_3
REMARK    3  A    between atoms: C2_2  and  C4_4
REMARK    4  A    between atoms: C6_6  and  O1_11
REMARK    5  A    between atoms: C7_7  and  C10_10
REMARK                            x       y       z     vdW  Elec       q    Type
REMARK                         _______ _______ _______ _____ _____    ______ ____
ROOT
ATOM      1  C4  UNL     1      -5.645  75.919  83.137  0.00  0.00    +0.000 A 
ATOM      2  C5  UNL     1      -4.580  75.440  83.918  0.00  0.00    +0.000 A 
ATOM      3  C6  UNL     1      -3.278  75.927  83.730  0.00  0.00    +0.000 A 
ATOM      4  C7  UNL     1      -3.029  76.904  82.750  0.00  0.00    +0.000 A 
ATOM      5  C8  UNL     1      -4.091  77.383  81.969  0.00  0.00    +0.000 A 
ATOM      6  C9  UNL     1      -5.387  76.896  82.160  0.00  0.00    +0.000 A 
ATOM      7  C10 UNL     1      -1.637  77.430  82.542  0.00  0.00    +0.000 C 
ENDROOT
BRANCH   1   9
ATOM      8  C1  UNL     1      -7.088  74.406  84.537  0.00  0.00    +0.000 C 
ATOM      9  C2  UNL     1      -7.047  75.381  83.355  0.00  0.00    +0.000 C 
ATOM     10  C3  UNL     1      -8.054  76.522  83.545  0.00  0.00    +0.000 C 
ENDBRANCH   1   9
BRANCH   3  11
ATOM     11  O1  UNL     1      -2.230  75.441  84.512  0.00  0.00    +0.000 OA
ATOM     12  H14 UNL     1      -1.589  74.737  84.165  0.00  0.00    +0.000 HD
ENDBRANCH   3  11
TORSDOF 2
ENDMDL
MODEL 7
REMARK VINA RESULT:      -4.5      2.840      3.938
REMARK  Name = .\Carvacrol.pdb
REMARK  5 active torsions:
REMARK  status: ('A' for Active; 'I' for Inactive)
REMARK    1  A    between atoms: C1_1  and  C2_2
REMARK    2  A    between atoms: C2_2  and  C3_3
REMARK    3  A    between atoms: C2_2  and  C4_4
REMARK    4  A    between atoms: C6_6  and  O1_11
REMARK    5  A    between atoms: C7_7  and  C10_10
REMARK                            x       y       z     vdW  Elec       q    Type
REMARK                         _______ _______ _______ _____ _____    ______ ____
ROOT
ATOM      1  C4  UNL     1       0.288  79.617  82.269  0.00  0.00    +0.000 A 
ATOM      2  C5  UNL     1       0.229  80.531  83.335  0.00  0.00    +0.000 A 
ATOM      3  C6  UNL     1       0.874  81.774  83.248  0.00  0.00    +0.000 A 
ATOM      4  C7  UNL     1       1.590  82.114  82.088  0.00  0.00    +0.000 A 
ATOM      5  C8  UNL     1       1.651  81.202  81.023  0.00  0.00    +0.000 A 
ATOM      6  C9  UNL     1       1.006  79.966  81.112  0.00  0.00    +0.000 A 
ATOM      7  C10 UNL     1       2.284  83.442  81.988  0.00  0.00    +0.000 C 
ENDROOT
BRANCH   1   9
ATOM      8  C1  UNL     1       0.163  77.441  83.527  0.00  0.00    +0.000 C 
ATOM      9  C2  UNL     1      -0.416  78.277  82.379  0.00  0.00    +0.000 C 
ATOM     10  C3  UNL     1      -1.931  78.459  82.538  0.00  0.00    +0.000 C 
ENDBRANCH   1   9
BRANCH   3  11
ATOM     11  O1  UNL     1       0.807  82.671  84.315  0.00  0.00    +0.000 OA
ATOM     12  H14 UNL     1      -0.026  83.218  84.497  0.00  0.00    +0.000 HD
ENDBRANCH   3  11
TORSDOF 2
ENDMDL
MODEL 8
REMARK VINA RESULT:      -4.3      3.691      6.329
REMARK  Name = .\Carvacrol.pdb
REMARK  5 active torsions:
REMARK  status: ('A' for Active; 'I' for Inactive)
REMARK    1  A    between atoms: C1_1  and  C2_2
REMARK    2  A    between atoms: C2_2  and  C3_3
REMARK    3  A    between atoms: C2_2  and  C4_4
REMARK    4  A    between atoms: C6_6  and  O1_11
REMARK    5  A    between atoms: C7_7  and  C10_10
REMARK                            x       y       z     vdW  Elec       q    Type
REMARK                         _______ _______ _______ _____ _____    ______ ____
ROOT
ATOM      1  C4  UNL     1      -0.336  80.617  82.555  0.00  0.00    +0.000 A 
ATOM      2  C5  UNL     1      -0.250  79.314  83.074  0.00  0.00    +0.000 A 
ATOM      3  C6  UNL     1      -1.257  78.372  82.817  0.00  0.00    +0.000 A 
ATOM      4  C7  UNL     1      -2.368  78.729  82.033  0.00  0.00    +0.000 A 
ATOM      5  C8  UNL     1      -2.456  80.030  81.514  0.00  0.00    +0.000 A 
ATOM      6  C9  UNL     1      -1.450  80.965  81.772  0.00  0.00    +0.000 A 
ATOM      7  C10 UNL     1      -3.451  77.727  81.754  0.00  0.00    +0.000 C 
ENDROOT
BRANCH   1   9
ATOM      8  C1  UNL     1       0.473  82.967  82.167  0.00  0.00    +0.000 C 
ATOM      9  C2  UNL     1       0.763  81.622  82.843  0.00  0.00    +0.000 C 
ATOM     10  C3  UNL     1       0.972  81.797  84.353  0.00  0.00    +0.000 C 
ENDBRANCH   1   9
BRANCH   3  11
ATOM     11  O1  UNL     1      -1.158  77.083  83.340  0.00  0.00    +0.000 OA
ATOM     12  H14 UNL     1      -1.407  76.878  84.301  0.00  0.00    +0.000 HD
ENDBRANCH   3  11
TORSDOF 2
ENDMDL
MODEL 9
REMARK VINA RESULT:      -4.2     10.365     11.808
REMARK  Name = .\Carvacrol.pdb
REMARK  5 active torsions:
REMARK  status: ('A' for Active; 'I' for Inactive)
REMARK    1  A    between atoms: C1_1  and  C2_2
REMARK    2  A    between atoms: C2_2  and  C3_3
REMARK    3  A    between atoms: C2_2  and  C4_4
REMARK    4  A    between atoms: C6_6  and  O1_11
REMARK    5  A    between atoms: C7_7  and  C10_10
REMARK                            x       y       z     vdW  Elec       q    Type
REMARK                         _______ _______ _______ _____ _____    ______ ____
ROOT
ATOM      1  C4  UNL     1      -6.350  77.044  81.715  0.00  0.00    +0.000 A 
ATOM      2  C5  UNL     1      -5.323  76.218  82.202  0.00  0.00    +0.000 A 
ATOM      3  C6  UNL     1      -5.556  75.338  83.269  0.00  0.00    +0.000 A 
ATOM      4  C7  UNL     1      -6.829  75.277  83.863  0.00  0.00    +0.000 A 
ATOM      5  C8  UNL     1      -7.856  76.102  83.379  0.00  0.00    +0.000 A 
ATOM      6  C9  UNL     1      -7.620  76.976  82.315  0.00  0.00    +0.000 A 
ATOM      7  C10 UNL     1      -7.086  74.338  85.007  0.00  0.00    +0.000 C 
ENDROOT
BRANCH   1   9
ATOM      8  C1  UNL     1      -5.705  77.217  79.289  0.00  0.00    +0.000 C 
ATOM      9  C2  UNL     1      -6.080  77.989  80.559  0.00  0.00    +0.000 C 
ATOM     10  C3  UNL     1      -7.277  78.915  80.310  0.00  0.00    +0.000 C 
ENDBRANCH   1   9
BRANCH   3  11
ATOM     11  O1  UNL     1      -4.526  74.525  83.742  0.00  0.00    +0.000 OA
ATOM     12  H14 UNL     1      -4.714  73.626  84.172  0.00  0.00    +0.000 HD
ENDBRANCH   3  11
TORSDOF 2
ENDMDL
