MODEL 1
REMARK VINA RESULT:      -4.9      0.000      0.000
REMARK  Name = .\Carvacrol.pdb
REMARK  5 active torsions:
REMARK  status: ('A' for Active; 'I' for Inactive)
REMARK    1  A    between atoms: C1_1  and  C2_2
REMARK    2  A    between atoms: C2_2  and  C3_3
REMARK    3  A    between atoms: C2_2  and  C4_4
REMARK    4  A    between atoms: C6_6  and  O1_11
REMARK    5  A    between atoms: C7_7  and  C10_10
REMARK                            x       y       z     vdW  Elec       q    Type
REMARK                         _______ _______ _______ _____ _____    ______ ____
ROOT
ATOM      1  C4  UNL     1     -10.107  41.977  14.238  0.00  0.00    +0.000 A 
ATOM      2  C5  UNL     1      -8.795  41.492  14.371  0.00  0.00    +0.000 A 
ATOM      3  C6  UNL     1      -8.057  41.103  13.242  0.00  0.00    +0.000 A 
ATOM      4  C7  UNL     1      -8.631  41.196  11.962  0.00  0.00    +0.000 A 
ATOM      5  C8  UNL     1      -9.941  41.681  11.827  0.00  0.00    +0.000 A 
ATOM      6  C9  UNL     1     -10.672  42.067  12.953  0.00  0.00    +0.000 A 
ATOM      7  C10 UNL     1      -7.847  40.782  10.750  0.00  0.00    +0.000 C 
ENDROOT
BRANCH   1   9
ATOM      8  C1  UNL     1     -10.129  42.043  16.753  0.00  0.00    +0.000 C 
ATOM      9  C2  UNL     1     -10.890  42.393  15.469  0.00  0.00    +0.000 C 
ATOM     10  C3  UNL     1     -11.240  43.885  15.424  0.00  0.00    +0.000 C 
ENDBRANCH   1   9
BRANCH   3  11
ATOM     11  O1  UNL     1      -6.756  40.623  13.390  0.00  0.00    +0.000 OA
ATOM     12  H14 UNL     1      -6.088  41.076  14.003  0.00  0.00    +0.000 HD
ENDBRANCH   3  11
TORSDOF 2
ENDMDL
MODEL 2
REMARK VINA RESULT:      -4.5      1.726      4.225
REMARK  Name = .\Carvacrol.pdb
REMARK  5 active torsions:
REMARK  status: ('A' for Active; 'I' for Inactive)
REMARK    1  A    between atoms: C1_1  and  C2_2
REMARK    2  A    between atoms: C2_2  and  C3_3
REMARK    3  A    between atoms: C2_2  and  C4_4
REMARK    4  A    between atoms: C6_6  and  O1_11
REMARK    5  A    between atoms: C7_7  and  C10_10
REMARK                            x       y       z     vdW  Elec       q    Type
REMARK                         _______ _______ _______ _____ _____    ______ ____
ROOT
ATOM      1  C4  UNL     1      -8.792  41.330  12.714  0.00  0.00    +0.000 A 
ATOM      2  C5  UNL     1      -8.913  41.532  14.099  0.00  0.00    +0.000 A 
ATOM      3  C6  UNL     1     -10.076  42.099  14.641  0.00  0.00    +0.000 A 
ATOM      4  C7  UNL     1     -11.135  42.473  13.796  0.00  0.00    +0.000 A 
ATOM      5  C8  UNL     1     -11.016  42.272  12.412  0.00  0.00    +0.000 A 
ATOM      6  C9  UNL     1      -9.856  41.706  11.876  0.00  0.00    +0.000 A 
ATOM      7  C10 UNL     1     -12.383  43.081  14.369  0.00  0.00    +0.000 C 
ENDROOT
BRANCH   1   9
ATOM      8  C1  UNL     1      -7.466  40.886  10.622  0.00  0.00    +0.000 C 
ATOM      9  C2  UNL     1      -7.527  40.714  12.144  0.00  0.00    +0.000 C 
ATOM     10  C3  UNL     1      -6.278  41.297  12.816  0.00  0.00    +0.000 C 
ENDBRANCH   1   9
BRANCH   3  11
ATOM     11  O1  UNL     1     -10.181  42.294  16.019  0.00  0.00    +0.000 OA
ATOM     12  H14 UNL     1      -9.361  42.402  16.605  0.00  0.00    +0.000 HD
ENDBRANCH   3  11
TORSDOF 2
ENDMDL
MODEL 3
REMARK VINA RESULT:      -4.4      2.032      4.569
REMARK  Name = .\Carvacrol.pdb
REMARK  5 active torsions:
REMARK  status: ('A' for Active; 'I' for Inactive)
REMARK    1  A    between atoms: C1_1  and  C2_2
REMARK    2  A    between atoms: C2_2  and  C3_3
REMARK    3  A    between atoms: C2_2  and  C4_4
REMARK    4  A    between atoms: C6_6  and  O1_11
REMARK    5  A    between atoms: C7_7  and  C10_10
REMARK                            x       y       z     vdW  Elec       q    Type
REMARK                         _______ _______ _______ _____ _____    ______ ____
ROOT
ATOM      1  C4  UNL     1      -8.791  41.277  12.813  0.00  0.00    +0.000 A 
ATOM      2  C5  UNL     1      -9.734  41.942  12.011  0.00  0.00    +0.000 A 
ATOM      3  C6  UNL     1     -10.885  42.509  12.578  0.00  0.00    +0.000 A 
ATOM      4  C7  UNL     1     -11.104  42.415  13.963  0.00  0.00    +0.000 A 
ATOM      5  C8  UNL     1     -10.164  41.751  14.767  0.00  0.00    +0.000 A 
ATOM      6  C9  UNL     1      -9.019  41.188  14.198  0.00  0.00    +0.000 A 
ATOM      7  C10 UNL     1     -12.334  43.019  14.578  0.00  0.00    +0.000 C 
ENDROOT
BRANCH   1   9
ATOM      8  C1  UNL     1      -7.564  40.844  10.660  0.00  0.00    +0.000 C 
ATOM      9  C2  UNL     1      -7.552  40.670  12.183  0.00  0.00    +0.000 C 
ATOM     10  C3  UNL     1      -6.275  41.257  12.796  0.00  0.00    +0.000 C 
ENDBRANCH   1   9
BRANCH   3  11
ATOM     11  O1  UNL     1     -11.812  43.165  11.768  0.00  0.00    +0.000 OA
ATOM     12  H14 UNL     1     -12.729  42.774  11.586  0.00  0.00    +0.000 HD
ENDBRANCH   3  11
TORSDOF 2
ENDMDL
MODEL 4
REMARK VINA RESULT:      -4.2      1.835      4.448
REMARK  Name = .\Carvacrol.pdb
REMARK  5 active torsions:
REMARK  status: ('A' for Active; 'I' for Inactive)
REMARK    1  A    between atoms: C1_1  and  C2_2
REMARK    2  A    between atoms: C2_2  and  C3_3
REMARK    3  A    between atoms: C2_2  and  C4_4
REMARK    4  A    between atoms: C6_6  and  O1_11
REMARK    5  A    between atoms: C7_7  and  C10_10
REMARK                            x       y       z     vdW  Elec       q    Type
REMARK                         _______ _______ _______ _____ _____    ______ ____
ROOT
ATOM      1  C4  UNL     1     -10.990  42.535  13.961  0.00  0.00    +0.000 A 
ATOM      2  C5  UNL     1      -9.953  42.117  14.813  0.00  0.00    +0.000 A 
ATOM      3  C6  UNL     1      -9.792  42.693  16.081  0.00  0.00    +0.000 A 
ATOM      4  C7  UNL     1     -10.673  43.701  16.512  0.00  0.00    +0.000 A 
ATOM      5  C8  UNL     1     -11.709  44.120  15.663  0.00  0.00    +0.000 A 
ATOM      6  C9  UNL     1     -11.866  43.543  14.401  0.00  0.00    +0.000 A 
ATOM      7  C10 UNL     1     -10.506  44.322  17.869  0.00  0.00    +0.000 C 
ENDROOT
BRANCH   1   9
ATOM      8  C1  UNL     1      -9.786  41.656  11.934  0.00  0.00    +0.000 C 
ATOM      9  C2  UNL     1     -11.150  41.901  12.592  0.00  0.00    +0.000 C 
ATOM     10  C3  UNL     1     -11.965  40.605  12.674  0.00  0.00    +0.000 C 
ENDBRANCH   1   9
BRANCH   3  11
ATOM     11  O1  UNL     1      -8.757  42.269  16.915  0.00  0.00    +0.000 OA
ATOM     12  H14 UNL     1      -8.903  42.112  17.906  0.00  0.00    +0.000 HD
ENDBRANCH   3  11
TORSDOF 2
ENDMDL
MODEL 5
REMARK VINA RESULT:      -4.2      1.567      2.686
REMARK  Name = .\Carvacrol.pdb
REMARK  5 active torsions:
REMARK  status: ('A' for Active; 'I' for Inactive)
REMARK    1  A    between atoms: C1_1  and  C2_2
REMARK    2  A    between atoms: C2_2  and  C3_3
REMARK    3  A    between atoms: C2_2  and  C4_4
REMARK    4  A    between atoms: C6_6  and  O1_11
REMARK    5  A    between atoms: C7_7  and  C10_10
REMARK                            x       y       z     vdW  Elec       q    Type
REMARK                         _______ _______ _______ _____ _____    ______ ____
ROOT
ATOM      1  C4  UNL     1     -10.556  43.101  16.284  0.00  0.00    +0.000 A 
ATOM      2  C5  UNL     1      -9.473  42.324  15.841  0.00  0.00    +0.000 A 
ATOM      3  C6  UNL     1      -9.428  41.844  14.523  0.00  0.00    +0.000 A 
ATOM      4  C7  UNL     1     -10.474  42.139  13.632  0.00  0.00    +0.000 A 
ATOM      5  C8  UNL     1     -11.557  42.915  14.074  0.00  0.00    +0.000 A 
ATOM      6  C9  UNL     1     -11.598  43.392  15.386  0.00  0.00    +0.000 A 
ATOM      7  C10 UNL     1     -10.433  41.628  12.220  0.00  0.00    +0.000 C 
ENDROOT
BRANCH   1   9
ATOM      8  C1  UNL     1     -10.897  45.114  17.755  0.00  0.00    +0.000 C 
ATOM      9  C2  UNL     1     -10.589  43.612  17.713  0.00  0.00    +0.000 C 
ATOM     10  C3  UNL     1     -11.588  42.818  18.562  0.00  0.00    +0.000 C 
ENDBRANCH   1   9
BRANCH   3  11
ATOM     11  O1  UNL     1      -8.346  41.073  14.097  0.00  0.00    +0.000 OA
ATOM     12  H14 UNL     1      -7.900  41.232  13.201  0.00  0.00    +0.000 HD
ENDBRANCH   3  11
TORSDOF 2
ENDMDL
MODEL 6
REMARK VINA RESULT:      -4.2      2.709      4.087
REMARK  Name = .\Carvacrol.pdb
REMARK  5 active torsions:
REMARK  status: ('A' for Active; 'I' for Inactive)
REMARK    1  A    between atoms: C1_1  and  C2_2
REMARK    2  A    between atoms: C2_2  and  C3_3
REMARK    3  A    between atoms: C2_2  and  C4_4
REMARK    4  A    between atoms: C6_6  and  O1_11
REMARK    5  A    between atoms: C7_7  and  C10_10
REMARK                            x       y       z     vdW  Elec       q    Type
REMARK                         _______ _______ _______ _____ _____    ______ ____
ROOT
ATOM      1  C4  UNL     1     -10.693  40.934  14.212  0.00  0.00    +0.000 A 
ATOM      2  C5  UNL     1      -9.609  40.549  15.020  0.00  0.00    +0.000 A 
ATOM      3  C6  UNL     1      -9.723  39.466  15.903  0.00  0.00    +0.000 A 
ATOM      4  C7  UNL     1     -10.931  38.752  15.988  0.00  0.00    +0.000 A 
ATOM      5  C8  UNL     1     -12.015  39.135  15.182  0.00  0.00    +0.000 A 
ATOM      6  C9  UNL     1     -11.898  40.214  14.303  0.00  0.00    +0.000 A 
ATOM      7  C10 UNL     1     -11.061  37.591  16.932  0.00  0.00    +0.000 C 
ENDROOT
BRANCH   1   9
ATOM      8  C1  UNL     1      -9.830  41.694  11.975  0.00  0.00    +0.000 C 
ATOM      9  C2  UNL     1     -10.552  42.108  13.262  0.00  0.00    +0.000 C 
ATOM     10  C3  UNL     1     -11.917  42.736  12.952  0.00  0.00    +0.000 C 
ENDBRANCH   1   9
BRANCH   3  11
ATOM     11  O1  UNL     1      -8.638  39.096  16.699  0.00  0.00    +0.000 OA
ATOM     12  H14 UNL     1      -8.715  38.363  17.395  0.00  0.00    +0.000 HD
ENDBRANCH   3  11
TORSDOF 2
ENDMDL
MODEL 7
REMARK VINA RESULT:      -4.0      2.613      4.965
REMARK  Name = .\Carvacrol.pdb
REMARK  5 active torsions:
REMARK  status: ('A' for Active; 'I' for Inactive)
REMARK    1  A    between atoms: C1_1  and  C2_2
REMARK    2  A    between atoms: C2_2  and  C3_3
REMARK    3  A    between atoms: C2_2  and  C4_4
REMARK    4  A    between atoms: C6_6  and  O1_11
REMARK    5  A    between atoms: C7_7  and  C10_10
REMARK                            x       y       z     vdW  Elec       q    Type
REMARK                         _______ _______ _______ _____ _____    ______ ____
ROOT
ATOM      1  C4  UNL     1     -10.821  42.441  13.978  0.00  0.00    +0.000 A 
ATOM      2  C5  UNL     1     -11.707  43.411  14.475  0.00  0.00    +0.000 A 
ATOM      3  C6  UNL     1     -11.537  43.946  15.760  0.00  0.00    +0.000 A 
ATOM      4  C7  UNL     1     -10.471  43.511  16.566  0.00  0.00    +0.000 A 
ATOM      5  C8  UNL     1      -9.584  42.541  16.072  0.00  0.00    +0.000 A 
ATOM      6  C9  UNL     1      -9.757  42.011  14.791  0.00  0.00    +0.000 A 
ATOM      7  C10 UNL     1     -10.282  44.079  17.944  0.00  0.00    +0.000 C 
ENDROOT
BRANCH   1   9
ATOM      8  C1  UNL     1      -9.674  41.581  11.910  0.00  0.00    +0.000 C 
ATOM      9  C2  UNL     1     -11.020  41.873  12.585  0.00  0.00    +0.000 C 
ATOM     10  C3  UNL     1     -11.904  40.620  12.619  0.00  0.00    +0.000 C 
ENDBRANCH   1   9
BRANCH   3  11
ATOM     11  O1  UNL     1     -12.425  44.909  16.239  0.00  0.00    +0.000 OA
ATOM     12  H14 UNL     1     -13.318  45.078  15.790  0.00  0.00    +0.000 HD
ENDBRANCH   3  11
TORSDOF 2
ENDMDL
MODEL 8
REMARK VINA RESULT:      -4.0      3.766      5.739
REMARK  Name = .\Carvacrol.pdb
REMARK  5 active torsions:
REMARK  status: ('A' for Active; 'I' for Inactive)
REMARK    1  A    between atoms: C1_1  and  C2_2
REMARK    2  A    between atoms: C2_2  and  C3_3
REMARK    3  A    between atoms: C2_2  and  C4_4
REMARK    4  A    between atoms: C6_6  and  O1_11
REMARK    5  A    between atoms: C7_7  and  C10_10
REMARK                            x       y       z     vdW  Elec       q    Type
REMARK                         _______ _______ _______ _____ _____    ______ ____
ROOT
ATOM      1  C4  UNL     1     -10.364  41.569  17.521  0.00  0.00    +0.000 A 
ATOM      2  C5  UNL     1      -9.777  42.745  17.024  0.00  0.00    +0.000 A 
ATOM      3  C6  UNL     1     -10.348  43.998  17.291  0.00  0.00    +0.000 A 
ATOM      4  C7  UNL     1     -11.520  44.086  18.062  0.00  0.00    +0.000 A 
ATOM      5  C8  UNL     1     -12.108  42.913  18.560  0.00  0.00    +0.000 A 
ATOM      6  C9  UNL     1     -11.536  41.666  18.293  0.00  0.00    +0.000 A 
ATOM      7  C10 UNL     1     -12.137  45.424  18.351  0.00  0.00    +0.000 C 
ENDROOT
BRANCH   1   9
ATOM      8  C1  UNL     1     -10.244  39.146  18.190  0.00  0.00    +0.000 C 
ATOM      9  C2  UNL     1      -9.733  40.221  17.223  0.00  0.00    +0.000 C 
ATOM     10  C3  UNL     1      -9.968  39.810  15.765  0.00  0.00    +0.000 C 
ENDBRANCH   1   9
BRANCH   3  11
ATOM     11  O1  UNL     1      -9.755  45.157  16.789  0.00  0.00    +0.000 OA
ATOM     12  H14 UNL     1     -10.309  45.951  16.491  0.00  0.00    +0.000 HD
ENDBRANCH   3  11
TORSDOF 2
ENDMDL
MODEL 9
REMARK VINA RESULT:      -3.9      2.035      2.828
REMARK  Name = .\Carvacrol.pdb
REMARK  5 active torsions:
REMARK  status: ('A' for Active; 'I' for Inactive)
REMARK    1  A    between atoms: C1_1  and  C2_2
REMARK    2  A    between atoms: C2_2  and  C3_3
REMARK    3  A    between atoms: C2_2  and  C4_4
REMARK    4  A    between atoms: C6_6  and  O1_11
REMARK    5  A    between atoms: C7_7  and  C10_10
REMARK                            x       y       z     vdW  Elec       q    Type
REMARK                         _______ _______ _______ _____ _____    ______ ____
ROOT
ATOM      1  C4  UNL     1     -11.025  42.132  15.308  0.00  0.00    +0.000 A 
ATOM      2  C5  UNL     1     -11.469  42.686  14.095  0.00  0.00    +0.000 A 
ATOM      3  C6  UNL     1     -10.784  42.430  12.898  0.00  0.00    +0.000 A 
ATOM      4  C7  UNL     1      -9.640  41.613  12.904  0.00  0.00    +0.000 A 
ATOM      5  C8  UNL     1      -9.195  41.060  14.114  0.00  0.00    +0.000 A 
ATOM      6  C9  UNL     1      -9.880  41.316  15.304  0.00  0.00    +0.000 A 
ATOM      7  C10 UNL     1      -8.901  41.336  11.626  0.00  0.00    +0.000 C 
ENDROOT
BRANCH   1   9
ATOM      8  C1  UNL     1     -13.260  42.051  16.460  0.00  0.00    +0.000 C 
ATOM      9  C2  UNL     1     -11.778  42.419  16.594  0.00  0.00    +0.000 C 
ATOM     10  C3  UNL     1     -11.135  41.697  17.784  0.00  0.00    +0.000 C 
ENDBRANCH   1   9
BRANCH   3  11
ATOM     11  O1  UNL     1     -11.236  42.988  11.702  0.00  0.00    +0.000 OA
ATOM     12  H14 UNL     1     -11.659  43.909  11.671  0.00  0.00    +0.000 HD
ENDBRANCH   3  11
TORSDOF 2
ENDMDL
