MODEL 1
REMARK VINA RESULT:      -4.7      0.000      0.000
REMARK  Name = .\Carvacrol.pdb
REMARK  5 active torsions:
REMARK  status: ('A' for Active; 'I' for Inactive)
REMARK    1  A    between atoms: C1_1  and  C2_2
REMARK    2  A    between atoms: C2_2  and  C3_3
REMARK    3  A    between atoms: C2_2  and  C4_4
REMARK    4  A    between atoms: C6_6  and  O1_11
REMARK    5  A    between atoms: C7_7  and  C10_10
REMARK                            x       y       z     vdW  Elec       q    Type
REMARK                         _______ _______ _______ _____ _____    ______ ____
ROOT
ATOM      1  C4  UNL     1      -0.324  88.873 109.417  0.00  0.00    +0.000 A 
ATOM      2  C5  UNL     1      -1.654  89.308 109.538  0.00  0.00    +0.000 A 
ATOM      3  C6  UNL     1      -2.386  89.699 108.407  0.00  0.00    +0.000 A 
ATOM      4  C7  UNL     1      -1.787  89.658 107.135  0.00  0.00    +0.000 A 
ATOM      5  C8  UNL     1      -0.459  89.223 107.012  0.00  0.00    +0.000 A 
ATOM      6  C9  UNL     1       0.266  88.834 108.141  0.00  0.00    +0.000 A 
ATOM      7  C10 UNL     1      -2.564  90.075 105.919  0.00  0.00    +0.000 C 
ENDROOT
BRANCH   1   9
ATOM      8  C1  UNL     1      -0.258  88.907 111.932  0.00  0.00    +0.000 C 
ATOM      9  C2  UNL     1       0.453  88.453 110.651  0.00  0.00    +0.000 C 
ATOM     10  C3  UNL     1       0.699  86.940 110.663  0.00  0.00    +0.000 C 
ENDBRANCH   1   9
BRANCH   3  11
ATOM     11  O1  UNL     1      -3.705  90.130 108.543  0.00  0.00    +0.000 OA
ATOM     12  H14 UNL     1      -4.094  90.376 109.446  0.00  0.00    +0.000 HD
ENDBRANCH   3  11
TORSDOF 2
ENDMDL
MODEL 2
REMARK VINA RESULT:      -4.4      1.702      4.222
REMARK  Name = .\Carvacrol.pdb
REMARK  5 active torsions:
REMARK  status: ('A' for Active; 'I' for Inactive)
REMARK    1  A    between atoms: C1_1  and  C2_2
REMARK    2  A    between atoms: C2_2  and  C3_3
REMARK    3  A    between atoms: C2_2  and  C4_4
REMARK    4  A    between atoms: C6_6  and  O1_11
REMARK    5  A    between atoms: C7_7  and  C10_10
REMARK                            x       y       z     vdW  Elec       q    Type
REMARK                         _______ _______ _______ _____ _____    ______ ____
ROOT
ATOM      1  C4  UNL     1      -1.759  89.588 107.873  0.00  0.00    +0.000 A 
ATOM      2  C5  UNL     1      -1.644  89.428 109.265  0.00  0.00    +0.000 A 
ATOM      3  C6  UNL     1      -0.481  88.885 109.830  0.00  0.00    +0.000 A 
ATOM      4  C7  UNL     1       0.586  88.495 109.002  0.00  0.00    +0.000 A 
ATOM      5  C8  UNL     1       0.473  88.653 107.612  0.00  0.00    +0.000 A 
ATOM      6  C9  UNL     1      -0.687  89.195 107.053  0.00  0.00    +0.000 A 
ATOM      7  C10 UNL     1       1.834  87.912 109.600  0.00  0.00    +0.000 C 
ENDROOT
BRANCH   1   9
ATOM      8  C1  UNL     1      -3.005  90.098 105.748  0.00  0.00    +0.000 C 
ATOM      9  C2  UNL     1      -3.024  90.178 107.279  0.00  0.00    +0.000 C 
ATOM     10  C3  UNL     1      -4.274  89.497 107.851  0.00  0.00    +0.000 C 
ENDBRANCH   1   9
BRANCH   3  11
ATOM     11  O1  UNL     1      -0.382  88.732 111.213  0.00  0.00    +0.000 OA
ATOM     12  H14 UNL     1       0.475  88.942 111.711  0.00  0.00    +0.000 HD
ENDBRANCH   3  11
TORSDOF 2
ENDMDL
MODEL 3
REMARK VINA RESULT:      -4.1      1.248      1.921
REMARK  Name = .\Carvacrol.pdb
REMARK  5 active torsions:
REMARK  status: ('A' for Active; 'I' for Inactive)
REMARK    1  A    between atoms: C1_1  and  C2_2
REMARK    2  A    between atoms: C2_2  and  C3_3
REMARK    3  A    between atoms: C2_2  and  C4_4
REMARK    4  A    between atoms: C6_6  and  O1_11
REMARK    5  A    between atoms: C7_7  and  C10_10
REMARK                            x       y       z     vdW  Elec       q    Type
REMARK                         _______ _______ _______ _____ _____    ______ ____
ROOT
ATOM      1  C4  UNL     1       0.429  89.005 111.039  0.00  0.00    +0.000 A 
ATOM      2  C5  UNL     1      -0.782  89.669 110.777  0.00  0.00    +0.000 A 
ATOM      3  C6  UNL     1      -1.267  89.784 109.466  0.00  0.00    +0.000 A 
ATOM      4  C7  UNL     1      -0.540  89.232 108.397  0.00  0.00    +0.000 A 
ATOM      5  C8  UNL     1       0.670  88.568 108.656  0.00  0.00    +0.000 A 
ATOM      6  C9  UNL     1       1.149  88.456 109.963  0.00  0.00    +0.000 A 
ATOM      7  C10 UNL     1      -1.053  89.351 106.991  0.00  0.00    +0.000 C 
ENDROOT
BRANCH   1   9
ATOM      8  C1  UNL     1       0.606  90.149 113.272  0.00  0.00    +0.000 C 
ATOM      9  C2  UNL     1       0.939  88.890 112.463  0.00  0.00    +0.000 C 
ATOM     10  C3  UNL     1       0.390  87.632 113.147  0.00  0.00    +0.000 C 
ENDBRANCH   1   9
BRANCH   3  11
ATOM     11  O1  UNL     1      -2.470  90.447 109.222  0.00  0.00    +0.000 OA
ATOM     12  H14 UNL     1      -3.348  89.945 109.146  0.00  0.00    +0.000 HD
ENDBRANCH   3  11
TORSDOF 2
ENDMDL
MODEL 4
REMARK VINA RESULT:      -4.1      2.171      3.034
REMARK  Name = .\Carvacrol.pdb
REMARK  5 active torsions:
REMARK  status: ('A' for Active; 'I' for Inactive)
REMARK    1  A    between atoms: C1_1  and  C2_2
REMARK    2  A    between atoms: C2_2  and  C3_3
REMARK    3  A    between atoms: C2_2  and  C4_4
REMARK    4  A    between atoms: C6_6  and  O1_11
REMARK    5  A    between atoms: C7_7  and  C10_10
REMARK                            x       y       z     vdW  Elec       q    Type
REMARK                         _______ _______ _______ _____ _____    ______ ____
ROOT
ATOM      1  C4  UNL     1       0.286  88.059 111.087  0.00  0.00    +0.000 A 
ATOM      2  C5  UNL     1       1.018  87.579 109.987  0.00  0.00    +0.000 A 
ATOM      3  C6  UNL     1       0.724  88.014 108.687  0.00  0.00    +0.000 A 
ATOM      4  C7  UNL     1      -0.313  88.939 108.473  0.00  0.00    +0.000 A 
ATOM      5  C8  UNL     1      -1.046  89.419 109.570  0.00  0.00    +0.000 A 
ATOM      6  C9  UNL     1      -0.749  88.984 110.864  0.00  0.00    +0.000 A 
ATOM      7  C10 UNL     1      -0.635  89.409 107.083  0.00  0.00    +0.000 C 
ENDROOT
BRANCH   1   9
ATOM      8  C1  UNL     1       0.868  88.760 113.432  0.00  0.00    +0.000 C 
ATOM      9  C2  UNL     1       0.618  87.578 112.487  0.00  0.00    +0.000 C 
ATOM     10  C3  UNL     1      -0.481  86.658 113.032  0.00  0.00    +0.000 C 
ENDBRANCH   1   9
BRANCH   3  11
ATOM     11  O1  UNL     1       1.458  87.528 107.605  0.00  0.00    +0.000 OA
ATOM     12  H14 UNL     1       2.413  87.205 107.713  0.00  0.00    +0.000 HD
ENDBRANCH   3  11
TORSDOF 2
ENDMDL
MODEL 5
REMARK VINA RESULT:      -4.0      3.246      4.649
REMARK  Name = .\Carvacrol.pdb
REMARK  5 active torsions:
REMARK  status: ('A' for Active; 'I' for Inactive)
REMARK    1  A    between atoms: C1_1  and  C2_2
REMARK    2  A    between atoms: C2_2  and  C3_3
REMARK    3  A    between atoms: C2_2  and  C4_4
REMARK    4  A    between atoms: C6_6  and  O1_11
REMARK    5  A    between atoms: C7_7  and  C10_10
REMARK                            x       y       z     vdW  Elec       q    Type
REMARK                         _______ _______ _______ _____ _____    ______ ____
ROOT
ATOM      1  C4  UNL     1       0.719  90.087 110.839  0.00  0.00    +0.000 A 
ATOM      2  C5  UNL     1       0.461  91.465 110.750  0.00  0.00    +0.000 A 
ATOM      3  C6  UNL     1      -0.418  92.089 111.648  0.00  0.00    +0.000 A 
ATOM      4  C7  UNL     1      -1.050  91.333 112.650  0.00  0.00    +0.000 A 
ATOM      5  C8  UNL     1      -0.794  89.956 112.741  0.00  0.00    +0.000 A 
ATOM      6  C9  UNL     1       0.082  89.339 111.845  0.00  0.00    +0.000 A 
ATOM      7  C10 UNL     1      -1.993  91.994 113.616  0.00  0.00    +0.000 C 
ENDROOT
BRANCH   1   9
ATOM      8  C1  UNL     1       1.213  88.008 109.510  0.00  0.00    +0.000 C 
ATOM      9  C2  UNL     1       1.673  89.428 109.859  0.00  0.00    +0.000 C 
ATOM     10  C3  UNL     1       1.843  90.280 108.595  0.00  0.00    +0.000 C 
ENDBRANCH   1   9
BRANCH   3  11
ATOM     11  O1  UNL     1      -0.665  93.458 111.547  0.00  0.00    +0.000 OA
ATOM     12  H14 UNL     1      -1.537  93.814 111.173  0.00  0.00    +0.000 HD
ENDBRANCH   3  11
TORSDOF 2
ENDMDL
MODEL 6
REMARK VINA RESULT:      -4.0      2.157      4.502
REMARK  Name = .\Carvacrol.pdb
REMARK  5 active torsions:
REMARK  status: ('A' for Active; 'I' for Inactive)
REMARK    1  A    between atoms: C1_1  and  C2_2
REMARK    2  A    between atoms: C2_2  and  C3_3
REMARK    3  A    between atoms: C2_2  and  C4_4
REMARK    4  A    between atoms: C6_6  and  O1_11
REMARK    5  A    between atoms: C7_7  and  C10_10
REMARK                            x       y       z     vdW  Elec       q    Type
REMARK                         _______ _______ _______ _____ _____    ______ ____
ROOT
ATOM      1  C4  UNL     1       0.385  88.970 109.774  0.00  0.00    +0.000 A 
ATOM      2  C5  UNL     1      -0.873  88.627 110.297  0.00  0.00    +0.000 A 
ATOM      3  C6  UNL     1      -0.978  87.916 111.502  0.00  0.00    +0.000 A 
ATOM      4  C7  UNL     1       0.184  87.538 112.197  0.00  0.00    +0.000 A 
ATOM      5  C8  UNL     1       1.441  87.879 111.676  0.00  0.00    +0.000 A 
ATOM      6  C9  UNL     1       1.541  88.588 110.477  0.00  0.00    +0.000 A 
ATOM      7  C10 UNL     1       0.079  86.776 113.488  0.00  0.00    +0.000 C 
ENDROOT
BRANCH   1   9
ATOM      8  C1  UNL     1       1.875  90.350 108.288  0.00  0.00    +0.000 C 
ATOM      9  C2  UNL     1       0.480  89.740 108.469  0.00  0.00    +0.000 C 
ATOM     10  C3  UNL     1       0.105  88.853 107.275  0.00  0.00    +0.000 C 
ENDBRANCH   1   9
BRANCH   3  11
ATOM     11  O1  UNL     1      -2.234  87.581 112.008  0.00  0.00    +0.000 OA
ATOM     12  H14 UNL     1      -2.491  87.784 112.968  0.00  0.00    +0.000 HD
ENDBRANCH   3  11
TORSDOF 2
ENDMDL
MODEL 7
REMARK VINA RESULT:      -4.0      2.601      4.948
REMARK  Name = .\Carvacrol.pdb
REMARK  5 active torsions:
REMARK  status: ('A' for Active; 'I' for Inactive)
REMARK    1  A    between atoms: C1_1  and  C2_2
REMARK    2  A    between atoms: C2_2  and  C3_3
REMARK    3  A    between atoms: C2_2  and  C4_4
REMARK    4  A    between atoms: C6_6  and  O1_11
REMARK    5  A    between atoms: C7_7  and  C10_10
REMARK                            x       y       z     vdW  Elec       q    Type
REMARK                         _______ _______ _______ _____ _____    ______ ____
ROOT
ATOM      1  C4  UNL     1       0.364  88.405 109.184  0.00  0.00    +0.000 A 
ATOM      2  C5  UNL     1       1.209  87.391 109.664  0.00  0.00    +0.000 A 
ATOM      3  C6  UNL     1       1.002  86.826 110.932  0.00  0.00    +0.000 A 
ATOM      4  C7  UNL     1      -0.061  87.275 111.735  0.00  0.00    +0.000 A 
ATOM      5  C8  UNL     1      -0.907  88.287 111.256  0.00  0.00    +0.000 A 
ATOM      6  C9  UNL     1      -0.698  88.847 109.994  0.00  0.00    +0.000 A 
ATOM      7  C10 UNL     1      -0.290  86.675 113.093  0.00  0.00    +0.000 C 
ENDROOT
BRANCH   1   9
ATOM      8  C1  UNL     1      -0.722  89.274 107.087  0.00  0.00    +0.000 C 
ATOM      9  C2  UNL     1       0.602  89.005 107.810  0.00  0.00    +0.000 C 
ATOM     10  C3  UNL     1       1.450  90.279 107.903  0.00  0.00    +0.000 C 
ENDBRANCH   1   9
BRANCH   3  11
ATOM     11  O1  UNL     1       1.850  85.821 111.396  0.00  0.00    +0.000 OA
ATOM     12  H14 UNL     1       1.692  84.845 111.170  0.00  0.00    +0.000 HD
ENDBRANCH   3  11
TORSDOF 2
ENDMDL
MODEL 8
REMARK VINA RESULT:      -4.0      3.936      5.607
REMARK  Name = .\Carvacrol.pdb
REMARK  5 active torsions:
REMARK  status: ('A' for Active; 'I' for Inactive)
REMARK    1  A    between atoms: C1_1  and  C2_2
REMARK    2  A    between atoms: C2_2  and  C3_3
REMARK    3  A    between atoms: C2_2  and  C4_4
REMARK    4  A    between atoms: C6_6  and  O1_11
REMARK    5  A    between atoms: C7_7  and  C10_10
REMARK                            x       y       z     vdW  Elec       q    Type
REMARK                         _______ _______ _______ _____ _____    ______ ____
ROOT
ATOM      1  C4  UNL     1      -0.045  89.703 112.831  0.00  0.00    +0.000 A 
ATOM      2  C5  UNL     1      -0.980  88.754 112.385  0.00  0.00    +0.000 A 
ATOM      3  C6  UNL     1      -0.752  87.382 112.568  0.00  0.00    +0.000 A 
ATOM      4  C7  UNL     1       0.423  86.945 113.204  0.00  0.00    +0.000 A 
ATOM      5  C8  UNL     1       1.358  87.891 113.651  0.00  0.00    +0.000 A 
ATOM      6  C9  UNL     1       1.127  89.256 113.466  0.00  0.00    +0.000 A 
ATOM      7  C10 UNL     1       0.674  85.477 113.404  0.00  0.00    +0.000 C 
ENDROOT
BRANCH   1   9
ATOM      8  C1  UNL     1      -0.322  91.538 111.133  0.00  0.00    +0.000 C 
ATOM      9  C2  UNL     1      -0.308  91.183 112.624  0.00  0.00    +0.000 C 
ATOM     10  C3  UNL     1      -1.612  91.614 113.307  0.00  0.00    +0.000 C 
ENDBRANCH   1   9
BRANCH   3  11
ATOM     11  O1  UNL     1      -1.689  86.451 112.119  0.00  0.00    +0.000 OA
ATOM     12  H14 UNL     1      -2.355  86.678 111.389  0.00  0.00    +0.000 HD
ENDBRANCH   3  11
TORSDOF 2
ENDMDL
MODEL 9
REMARK VINA RESULT:      -3.8      1.967      2.708
REMARK  Name = .\Carvacrol.pdb
REMARK  5 active torsions:
REMARK  status: ('A' for Active; 'I' for Inactive)
REMARK    1  A    between atoms: C1_1  and  C2_2
REMARK    2  A    between atoms: C2_2  and  C3_3
REMARK    3  A    between atoms: C2_2  and  C4_4
REMARK    4  A    between atoms: C6_6  and  O1_11
REMARK    5  A    between atoms: C7_7  and  C10_10
REMARK                            x       y       z     vdW  Elec       q    Type
REMARK                         _______ _______ _______ _____ _____    ______ ____
ROOT
ATOM      1  C4  UNL     1       0.530  90.650 111.065  0.00  0.00    +0.000 A 
ATOM      2  C5  UNL     1      -0.799  90.351 110.721  0.00  0.00    +0.000 A 
ATOM      3  C6  UNL     1      -1.110  89.815 109.463  0.00  0.00    +0.000 A 
ATOM      4  C7  UNL     1      -0.086  89.572 108.531  0.00  0.00    +0.000 A 
ATOM      5  C8  UNL     1       1.242  89.870 108.872  0.00  0.00    +0.000 A 
ATOM      6  C9  UNL     1       1.548  90.403 110.127  0.00  0.00    +0.000 A 
ATOM      7  C10 UNL     1      -0.411  88.998 107.181  0.00  0.00    +0.000 C 
ENDROOT
BRANCH   1   9
ATOM      8  C1  UNL     1      -0.361  91.130 113.369  0.00  0.00    +0.000 C 
ATOM      9  C2  UNL     1       0.848  91.230 112.431  0.00  0.00    +0.000 C 
ATOM     10  C3  UNL     1       2.081  90.555 113.045  0.00  0.00    +0.000 C 
ENDBRANCH   1   9
BRANCH   3  11
ATOM     11  O1  UNL     1      -2.434  89.524 109.135  0.00  0.00    +0.000 OA
ATOM     12  H14 UNL     1      -2.693  89.191 108.213  0.00  0.00    +0.000 HD
ENDBRANCH   3  11
TORSDOF 2
ENDMDL
