MODEL 1
REMARK VINA RESULT:      -4.8      0.000      0.000
REMARK  Name = .\Carvacrol.pdb
REMARK  5 active torsions:
REMARK  status: ('A' for Active; 'I' for Inactive)
REMARK    1  A    between atoms: C1_1  and  C2_2
REMARK    2  A    between atoms: C2_2  and  C3_3
REMARK    3  A    between atoms: C2_2  and  C4_4
REMARK    4  A    between atoms: C6_6  and  O1_11
REMARK    5  A    between atoms: C7_7  and  C10_10
REMARK                            x       y       z     vdW  Elec       q    Type
REMARK                         _______ _______ _______ _____ _____    ______ ____
ROOT
ATOM      1  C4  UNL     1      -9.260  77.534  73.242  0.00  0.00    +0.000 A 
ATOM      2  C5  UNL     1      -8.378  78.179  72.358  0.00  0.00    +0.000 A 
ATOM      3  C6  UNL     1      -8.441  77.933  70.978  0.00  0.00    +0.000 A 
ATOM      4  C7  UNL     1      -9.392  77.033  70.468  0.00  0.00    +0.000 A 
ATOM      5  C8  UNL     1     -10.274  76.388  71.350  0.00  0.00    +0.000 A 
ATOM      6  C9  UNL     1     -10.208  76.636  72.723  0.00  0.00    +0.000 A 
ATOM      7  C10 UNL     1      -9.465  76.764  68.992  0.00  0.00    +0.000 C 
ENDROOT
BRANCH   1   9
ATOM      8  C1  UNL     1      -7.952  77.134  75.354  0.00  0.00    +0.000 C 
ATOM      9  C2  UNL     1      -9.178  77.812  74.732  0.00  0.00    +0.000 C 
ATOM     10  C3  UNL     1      -9.180  79.319  75.015  0.00  0.00    +0.000 C 
ENDBRANCH   1   9
BRANCH   3  11
ATOM     11  O1  UNL     1      -7.559  78.580  70.113  0.00  0.00    +0.000 OA
ATOM     12  H14 UNL     1      -6.556  78.450  70.181  0.00  0.00    +0.000 HD
ENDBRANCH   3  11
TORSDOF 2
ENDMDL
MODEL 2
REMARK VINA RESULT:      -4.6      3.259      4.992
REMARK  Name = .\Carvacrol.pdb
REMARK  5 active torsions:
REMARK  status: ('A' for Active; 'I' for Inactive)
REMARK    1  A    between atoms: C1_1  and  C2_2
REMARK    2  A    between atoms: C2_2  and  C3_3
REMARK    3  A    between atoms: C2_2  and  C4_4
REMARK    4  A    between atoms: C6_6  and  O1_11
REMARK    5  A    between atoms: C7_7  and  C10_10
REMARK                            x       y       z     vdW  Elec       q    Type
REMARK                         _______ _______ _______ _____ _____    ______ ____
ROOT
ATOM      1  C4  UNL     1     -10.989  76.389  70.683  0.00  0.00    +0.000 A 
ATOM      2  C5  UNL     1     -11.259  75.747  71.903  0.00  0.00    +0.000 A 
ATOM      3  C6  UNL     1     -12.578  75.587  72.353  0.00  0.00    +0.000 A 
ATOM      4  C7  UNL     1     -13.647  76.073  71.580  0.00  0.00    +0.000 A 
ATOM      5  C8  UNL     1     -13.380  76.715  70.361  0.00  0.00    +0.000 A 
ATOM      6  C9  UNL     1     -12.065  76.871  69.916  0.00  0.00    +0.000 A 
ATOM      7  C10 UNL     1     -15.062  75.906  72.055  0.00  0.00    +0.000 C 
ENDROOT
BRANCH   1   9
ATOM      8  C1  UNL     1      -9.501  76.871  68.713  0.00  0.00    +0.000 C 
ATOM      9  C2  UNL     1      -9.556  76.553  70.212  0.00  0.00    +0.000 C 
ATOM     10  C3  UNL     1      -8.823  77.621  71.031  0.00  0.00    +0.000 C 
ENDBRANCH   1   9
BRANCH   3  11
ATOM     11  O1  UNL     1     -12.829  74.948  73.567  0.00  0.00    +0.000 OA
ATOM     12  H14 UNL     1     -13.199  75.451  74.366  0.00  0.00    +0.000 HD
ENDBRANCH   3  11
TORSDOF 2
ENDMDL
MODEL 3
REMARK VINA RESULT:      -4.5      2.934      4.055
REMARK  Name = .\Carvacrol.pdb
REMARK  5 active torsions:
REMARK  status: ('A' for Active; 'I' for Inactive)
REMARK    1  A    between atoms: C1_1  and  C2_2
REMARK    2  A    between atoms: C2_2  and  C3_3
REMARK    3  A    between atoms: C2_2  and  C4_4
REMARK    4  A    between atoms: C6_6  and  O1_11
REMARK    5  A    between atoms: C7_7  and  C10_10
REMARK                            x       y       z     vdW  Elec       q    Type
REMARK                         _______ _______ _______ _____ _____    ______ ____
ROOT
ATOM      1  C4  UNL     1     -10.398  76.936  71.701  0.00  0.00    +0.000 A 
ATOM      2  C5  UNL     1     -11.026  76.167  72.696  0.00  0.00    +0.000 A 
ATOM      3  C6  UNL     1     -12.248  75.526  72.441  0.00  0.00    +0.000 A 
ATOM      4  C7  UNL     1     -12.856  75.651  71.180  0.00  0.00    +0.000 A 
ATOM      5  C8  UNL     1     -12.231  76.419  70.185  0.00  0.00    +0.000 A 
ATOM      6  C9  UNL     1     -11.015  77.055  70.443  0.00  0.00    +0.000 A 
ATOM      7  C10 UNL     1     -14.165  74.968  70.900  0.00  0.00    +0.000 C 
ENDROOT
BRANCH   1   9
ATOM      8  C1  UNL     1      -8.317  77.932  70.699  0.00  0.00    +0.000 C 
ATOM      9  C2  UNL     1      -9.077  77.623  71.994  0.00  0.00    +0.000 C 
ATOM     10  C3  UNL     1      -9.286  78.892  72.828  0.00  0.00    +0.000 C 
ENDBRANCH   1   9
BRANCH   3  11
ATOM     11  O1  UNL     1     -12.859  74.767  73.439  0.00  0.00    +0.000 OA
ATOM     12  H14 UNL     1     -13.835  74.500  73.381  0.00  0.00    +0.000 HD
ENDBRANCH   3  11
TORSDOF 2
ENDMDL
MODEL 4
REMARK VINA RESULT:      -4.5      3.164      4.685
REMARK  Name = .\Carvacrol.pdb
REMARK  5 active torsions:
REMARK  status: ('A' for Active; 'I' for Inactive)
REMARK    1  A    between atoms: C1_1  and  C2_2
REMARK    2  A    between atoms: C2_2  and  C3_3
REMARK    3  A    between atoms: C2_2  and  C4_4
REMARK    4  A    between atoms: C6_6  and  O1_11
REMARK    5  A    between atoms: C7_7  and  C10_10
REMARK                            x       y       z     vdW  Elec       q    Type
REMARK                         _______ _______ _______ _____ _____    ______ ____
ROOT
ATOM      1  C4  UNL     1     -10.332  76.734  70.463  0.00  0.00    +0.000 A 
ATOM      2  C5  UNL     1     -11.594  76.827  69.852  0.00  0.00    +0.000 A 
ATOM      3  C6  UNL     1     -12.747  76.385  70.518  0.00  0.00    +0.000 A 
ATOM      4  C7  UNL     1     -12.646  75.841  71.810  0.00  0.00    +0.000 A 
ATOM      5  C8  UNL     1     -11.387  75.746  72.423  0.00  0.00    +0.000 A 
ATOM      6  C9  UNL     1     -10.241  76.188  71.756  0.00  0.00    +0.000 A 
ATOM      7  C10 UNL     1     -13.876  75.365  72.529  0.00  0.00    +0.000 C 
ENDROOT
BRANCH   1   9
ATOM      8  C1  UNL     1      -8.184  78.029  70.656  0.00  0.00    +0.000 C 
ATOM      9  C2  UNL     1      -9.095  77.217  69.729  0.00  0.00    +0.000 C 
ATOM     10  C3  UNL     1      -8.336  76.046  69.094  0.00  0.00    +0.000 C 
ENDBRANCH   1   9
BRANCH   3  11
ATOM     11  O1  UNL     1     -13.993  76.484  69.898  0.00  0.00    +0.000 OA
ATOM     12  H14 UNL     1     -14.792  76.887  70.373  0.00  0.00    +0.000 HD
ENDBRANCH   3  11
TORSDOF 2
ENDMDL
MODEL 5
REMARK VINA RESULT:      -4.4      1.885      2.579
REMARK  Name = .\Carvacrol.pdb
REMARK  5 active torsions:
REMARK  status: ('A' for Active; 'I' for Inactive)
REMARK    1  A    between atoms: C1_1  and  C2_2
REMARK    2  A    between atoms: C2_2  and  C3_3
REMARK    3  A    between atoms: C2_2  and  C4_4
REMARK    4  A    between atoms: C6_6  and  O1_11
REMARK    5  A    between atoms: C7_7  and  C10_10
REMARK                            x       y       z     vdW  Elec       q    Type
REMARK                         _______ _______ _______ _____ _____    ______ ____
ROOT
ATOM      1  C4  UNL     1     -11.121  77.713  72.503  0.00  0.00    +0.000 A 
ATOM      2  C5  UNL     1      -9.744  77.983  72.437  0.00  0.00    +0.000 A 
ATOM      3  C6  UNL     1      -8.989  77.583  71.324  0.00  0.00    +0.000 A 
ATOM      4  C7  UNL     1      -9.610  76.905  70.261  0.00  0.00    +0.000 A 
ATOM      5  C8  UNL     1     -10.985  76.634  70.325  0.00  0.00    +0.000 A 
ATOM      6  C9  UNL     1     -11.734  77.034  71.435  0.00  0.00    +0.000 A 
ATOM      7  C10 UNL     1      -8.807  76.474  69.066  0.00  0.00    +0.000 C 
ENDROOT
BRANCH   1   9
ATOM      8  C1  UNL     1     -12.341  79.623  73.597  0.00  0.00    +0.000 C 
ATOM      9  C2  UNL     1     -11.923  78.152  73.714  0.00  0.00    +0.000 C 
ATOM     10  C3  UNL     1     -13.143  77.247  73.928  0.00  0.00    +0.000 C 
ENDBRANCH   1   9
BRANCH   3  11
ATOM     11  O1  UNL     1      -7.622  77.858  71.273  0.00  0.00    +0.000 OA
ATOM     12  H14 UNL     1      -7.238  78.719  71.645  0.00  0.00    +0.000 HD
ENDBRANCH   3  11
TORSDOF 2
ENDMDL
MODEL 6
REMARK VINA RESULT:      -4.4      1.497      3.650
REMARK  Name = .\Carvacrol.pdb
REMARK  5 active torsions:
REMARK  status: ('A' for Active; 'I' for Inactive)
REMARK    1  A    between atoms: C1_1  and  C2_2
REMARK    2  A    between atoms: C2_2  and  C3_3
REMARK    3  A    between atoms: C2_2  and  C4_4
REMARK    4  A    between atoms: C6_6  and  O1_11
REMARK    5  A    between atoms: C7_7  and  C10_10
REMARK                            x       y       z     vdW  Elec       q    Type
REMARK                         _______ _______ _______ _____ _____    ______ ____
ROOT
ATOM      1  C4  UNL     1     -10.661  76.852  71.838  0.00  0.00    +0.000 A 
ATOM      2  C5  UNL     1      -9.619  77.078  70.922  0.00  0.00    +0.000 A 
ATOM      3  C6  UNL     1      -8.647  78.058  71.170  0.00  0.00    +0.000 A 
ATOM      4  C7  UNL     1      -8.709  78.827  72.345  0.00  0.00    +0.000 A 
ATOM      5  C8  UNL     1      -9.749  78.604  73.261  0.00  0.00    +0.000 A 
ATOM      6  C9  UNL     1     -10.715  77.626  73.011  0.00  0.00    +0.000 A 
ATOM      7  C10 UNL     1      -7.672  79.879  72.618  0.00  0.00    +0.000 C 
ENDROOT
BRANCH   1   9
ATOM      8  C1  UNL     1     -12.529  75.475  72.807  0.00  0.00    +0.000 C 
ATOM      9  C2  UNL     1     -11.704  75.788  71.553  0.00  0.00    +0.000 C 
ATOM     10  C3  UNL     1     -12.608  76.197  70.384  0.00  0.00    +0.000 C 
ENDBRANCH   1   9
BRANCH   3  11
ATOM     11  O1  UNL     1      -7.619  78.271  70.251  0.00  0.00    +0.000 OA
ATOM     12  H14 UNL     1      -7.701  77.978  69.285  0.00  0.00    +0.000 HD
ENDBRANCH   3  11
TORSDOF 2
ENDMDL
MODEL 7
REMARK VINA RESULT:      -4.2      2.470      4.419
REMARK  Name = .\Carvacrol.pdb
REMARK  5 active torsions:
REMARK  status: ('A' for Active; 'I' for Inactive)
REMARK    1  A    between atoms: C1_1  and  C2_2
REMARK    2  A    between atoms: C2_2  and  C3_3
REMARK    3  A    between atoms: C2_2  and  C4_4
REMARK    4  A    between atoms: C6_6  and  O1_11
REMARK    5  A    between atoms: C7_7  and  C10_10
REMARK                            x       y       z     vdW  Elec       q    Type
REMARK                         _______ _______ _______ _____ _____    ______ ____
ROOT
ATOM      1  C4  UNL     1     -12.190  76.964  71.012  0.00  0.00    +0.000 A 
ATOM      2  C5  UNL     1     -10.987  76.610  70.379  0.00  0.00    +0.000 A 
ATOM      3  C6  UNL     1      -9.752  76.996  70.921  0.00  0.00    +0.000 A 
ATOM      4  C7  UNL     1      -9.710  77.744  72.110  0.00  0.00    +0.000 A 
ATOM      5  C8  UNL     1     -10.911  78.099  72.745  0.00  0.00    +0.000 A 
ATOM      6  C9  UNL     1     -12.139  77.713  72.202  0.00  0.00    +0.000 A 
ATOM      7  C10 UNL     1      -8.392  78.161  72.697  0.00  0.00    +0.000 C 
ENDROOT
BRANCH   1   9
ATOM      8  C1  UNL     1     -13.865  75.098  70.805  0.00  0.00    +0.000 C 
ATOM      9  C2  UNL     1     -13.517  76.539  70.412  0.00  0.00    +0.000 C 
ATOM     10  C3  UNL     1     -14.639  77.506  70.809  0.00  0.00    +0.000 C 
ENDBRANCH   1   9
BRANCH   3  11
ATOM     11  O1  UNL     1      -8.565  76.637  70.281  0.00  0.00    +0.000 OA
ATOM     12  H14 UNL     1      -7.953  77.332  69.869  0.00  0.00    +0.000 HD
ENDBRANCH   3  11
TORSDOF 2
ENDMDL
MODEL 8
REMARK VINA RESULT:      -4.1      2.040      4.653
REMARK  Name = .\Carvacrol.pdb
REMARK  5 active torsions:
REMARK  status: ('A' for Active; 'I' for Inactive)
REMARK    1  A    between atoms: C1_1  and  C2_2
REMARK    2  A    between atoms: C2_2  and  C3_3
REMARK    3  A    between atoms: C2_2  and  C4_4
REMARK    4  A    between atoms: C6_6  and  O1_11
REMARK    5  A    between atoms: C7_7  and  C10_10
REMARK                            x       y       z     vdW  Elec       q    Type
REMARK                         _______ _______ _______ _____ _____    ______ ____
ROOT
ATOM      1  C4  UNL     1      -9.830  77.194  71.453  0.00  0.00    +0.000 A 
ATOM      2  C5  UNL     1     -10.514  77.101  72.677  0.00  0.00    +0.000 A 
ATOM      3  C6  UNL     1     -10.030  77.758  73.818  0.00  0.00    +0.000 A 
ATOM      4  C7  UNL     1      -8.849  78.517  73.745  0.00  0.00    +0.000 A 
ATOM      5  C8  UNL     1      -8.165  78.610  72.523  0.00  0.00    +0.000 A 
ATOM      6  C9  UNL     1      -8.649  77.955  71.388  0.00  0.00    +0.000 A 
ATOM      7  C10 UNL     1      -8.326  79.222  74.963  0.00  0.00    +0.000 C 
ENDROOT
BRANCH   1   9
ATOM      8  C1  UNL     1     -11.853  76.788  70.013  0.00  0.00    +0.000 C 
ATOM      9  C2  UNL     1     -10.367  76.477  70.227  0.00  0.00    +0.000 C 
ATOM     10  C3  UNL     1      -9.544  76.823  68.980  0.00  0.00    +0.000 C 
ENDBRANCH   1   9
BRANCH   3  11
ATOM     11  O1  UNL     1     -10.720  77.656  75.027  0.00  0.00    +0.000 OA
ATOM     12  H14 UNL     1     -11.055  78.477  75.518  0.00  0.00    +0.000 HD
ENDBRANCH   3  11
TORSDOF 2
ENDMDL
MODEL 9
REMARK VINA RESULT:      -4.0      1.860      3.908
REMARK  Name = .\Carvacrol.pdb
REMARK  5 active torsions:
REMARK  status: ('A' for Active; 'I' for Inactive)
REMARK    1  A    between atoms: C1_1  and  C2_2
REMARK    2  A    between atoms: C2_2  and  C3_3
REMARK    3  A    between atoms: C2_2  and  C4_4
REMARK    4  A    between atoms: C6_6  and  O1_11
REMARK    5  A    between atoms: C7_7  and  C10_10
REMARK                            x       y       z     vdW  Elec       q    Type
REMARK                         _______ _______ _______ _____ _____    ______ ____
ROOT
ATOM      1  C4  UNL     1     -11.211  77.629  72.144  0.00  0.00    +0.000 A 
ATOM      2  C5  UNL     1      -9.978  77.322  71.544  0.00  0.00    +0.000 A 
ATOM      3  C6  UNL     1      -8.828  78.066  71.849  0.00  0.00    +0.000 A 
ATOM      4  C7  UNL     1      -8.903  79.131  72.763  0.00  0.00    +0.000 A 
ATOM      5  C8  UNL     1     -10.133  79.439  73.364  0.00  0.00    +0.000 A 
ATOM      6  C9  UNL     1     -11.276  78.696  73.058  0.00  0.00    +0.000 A 
ATOM      7  C10 UNL     1      -7.676  79.932  73.094  0.00  0.00    +0.000 C 
ENDROOT
BRANCH   1   9
ATOM      8  C1  UNL     1     -12.464  76.436  70.318  0.00  0.00    +0.000 C 
ATOM      9  C2  UNL     1     -12.445  76.814  71.804  0.00  0.00    +0.000 C 
ATOM     10  C3  UNL     1     -12.548  75.569  72.692  0.00  0.00    +0.000 C 
ENDBRANCH   1   9
BRANCH   3  11
ATOM     11  O1  UNL     1      -7.611  77.750  71.244  0.00  0.00    +0.000 OA
ATOM     12  H14 UNL     1      -7.528  77.650  70.238  0.00  0.00    +0.000 HD
ENDBRANCH   3  11
TORSDOF 2
ENDMDL
