MODEL 1
REMARK VINA RESULT:      -3.4      0.000      0.000
REMARK  Name = .\Carvone.pdb
REMARK  3 active torsions:
REMARK  status: ('A' for Active; 'I' for Inactive)
REMARK    1  A    between atoms: C1_1  and  C2_2
REMARK    2  A    between atoms: C7_8  and  C8_9
REMARK    3  A    between atoms: C7_8  and  C9_10
REMARK                            x       y       z     vdW  Elec       q    Type
REMARK                         _______ _______ _______ _____ _____    ______ ____
ROOT
ATOM      1  C1  UNL     1     -19.214  87.290 115.196  0.00  0.00    +0.000 C 
ATOM      2  C2  UNL     1     -18.981  86.301 116.312  0.00  0.00    +0.000 C 
ATOM      3  C3  UNL     1     -19.243  86.711 117.563  0.00  0.00    +0.000 C 
ATOM      4  C4  UNL     1     -19.047  85.823 118.711  0.00  0.00    +0.000 C 
ATOM      5  O1  UNL     1     -19.300  86.230 119.876  0.00  0.00    +0.000 OA
ATOM      6  C5  UNL     1     -18.558  84.464 118.499  0.00  0.00    +0.000 C 
ATOM      7  C6  UNL     1     -18.289  84.027 117.269  0.00  0.00    +0.000 C 
ATOM      8  C7  UNL     1     -18.462  84.879 116.017  0.00  0.00    +0.000 C 
ATOM      9  C8  UNL     1     -17.086  84.966 115.328  0.00  0.00    +0.000 C 
ATOM     10  C9  UNL     1     -19.460  84.148 115.098  0.00  0.00    +0.000 C 
ENDROOT
TORSDOF 0
ENDMDL
MODEL 2
REMARK VINA RESULT:      -3.3      0.906      2.488
REMARK  Name = .\Carvone.pdb
REMARK  3 active torsions:
REMARK  status: ('A' for Active; 'I' for Inactive)
REMARK    1  A    between atoms: C1_1  and  C2_2
REMARK    2  A    between atoms: C7_8  and  C8_9
REMARK    3  A    between atoms: C7_8  and  C9_10
REMARK                            x       y       z     vdW  Elec       q    Type
REMARK                         _______ _______ _______ _____ _____    ______ ____
ROOT
ATOM      1  C1  UNL     1     -18.539  83.162 116.190  0.00  0.00    +0.000 C 
ATOM      2  C2  UNL     1     -18.744  84.571 116.690  0.00  0.00    +0.000 C 
ATOM      3  C3  UNL     1     -18.958  84.732 118.006  0.00  0.00    +0.000 C 
ATOM      4  C4  UNL     1     -19.168  86.060 118.585  0.00  0.00    +0.000 C 
ATOM      5  O1  UNL     1     -19.365  86.187 119.822  0.00  0.00    +0.000 OA
ATOM      6  C5  UNL     1     -19.147  87.237 117.721  0.00  0.00    +0.000 C 
ATOM      7  C6  UNL     1     -18.937  87.110 116.411  0.00  0.00    +0.000 C 
ATOM      8  C7  UNL     1     -18.709  85.769 115.722  0.00  0.00    +0.000 C 
ATOM      9  C8  UNL     1     -19.815  85.606 114.661  0.00  0.00    +0.000 C 
ATOM     10  C9  UNL     1     -17.332  85.836 115.034  0.00  0.00    +0.000 C 
ENDROOT
TORSDOF 0
ENDMDL
MODEL 3
REMARK VINA RESULT:      -3.2      3.179      4.386
REMARK  Name = .\Carvone.pdb
REMARK  3 active torsions:
REMARK  status: ('A' for Active; 'I' for Inactive)
REMARK    1  A    between atoms: C1_1  and  C2_2
REMARK    2  A    between atoms: C7_8  and  C8_9
REMARK    3  A    between atoms: C7_8  and  C9_10
REMARK                            x       y       z     vdW  Elec       q    Type
REMARK                         _______ _______ _______ _____ _____    ______ ____
ROOT
ATOM      1  C1  UNL     1     -17.130  84.799 114.933  0.00  0.00    +0.000 C 
ATOM      2  C2  UNL     1     -18.042  83.652 115.297  0.00  0.00    +0.000 C 
ATOM      3  C3  UNL     1     -17.912  82.515 114.595  0.00  0.00    +0.000 C 
ATOM      4  C4  UNL     1     -18.751  81.349 114.875  0.00  0.00    +0.000 C 
ATOM      5  O1  UNL     1     -18.611  80.293 114.204  0.00  0.00    +0.000 OA
ATOM      6  C5  UNL     1     -19.752  81.416 115.936  0.00  0.00    +0.000 C 
ATOM      7  C6  UNL     1     -19.904  82.531 116.651  0.00  0.00    +0.000 C 
ATOM      8  C7  UNL     1     -19.077  83.792 116.430  0.00  0.00    +0.000 C 
ATOM      9  C8  UNL     1     -20.059  84.931 116.094  0.00  0.00    +0.000 C 
ATOM     10  C9  UNL     1     -18.352  84.102 117.755  0.00  0.00    +0.000 C 
ENDROOT
TORSDOF 0
ENDMDL
MODEL 4
REMARK VINA RESULT:      -3.1      2.101      3.292
REMARK  Name = .\Carvone.pdb
REMARK  3 active torsions:
REMARK  status: ('A' for Active; 'I' for Inactive)
REMARK    1  A    between atoms: C1_1  and  C2_2
REMARK    2  A    between atoms: C7_8  and  C8_9
REMARK    3  A    between atoms: C7_8  and  C9_10
REMARK                            x       y       z     vdW  Elec       q    Type
REMARK                         _______ _______ _______ _____ _____    ______ ____
ROOT
ATOM      1  C1  UNL     1     -19.647  87.936 116.862  0.00  0.00    +0.000 C 
ATOM      2  C2  UNL     1     -19.105  86.527 116.871  0.00  0.00    +0.000 C 
ATOM      3  C3  UNL     1     -18.340  86.155 115.833  0.00  0.00    +0.000 C 
ATOM      4  C4  UNL     1     -17.770  84.809 115.753  0.00  0.00    +0.000 C 
ATOM      5  O1  UNL     1     -17.055  84.483 114.769  0.00  0.00    +0.000 OA
ATOM      6  C5  UNL     1     -18.034  83.847 116.818  0.00  0.00    +0.000 C 
ATOM      7  C6  UNL     1     -18.790  84.187 117.863  0.00  0.00    +0.000 C 
ATOM      8  C7  UNL     1     -19.424  85.563 118.030  0.00  0.00    +0.000 C 
ATOM      9  C8  UNL     1     -20.949  85.356 118.124  0.00  0.00    +0.000 C 
ATOM     10  C9  UNL     1     -18.896  86.153 119.352  0.00  0.00    +0.000 C 
ENDROOT
TORSDOF 0
ENDMDL
MODEL 5
REMARK VINA RESULT:      -3.0      2.283      3.072
REMARK  Name = .\Carvone.pdb
REMARK  3 active torsions:
REMARK  status: ('A' for Active; 'I' for Inactive)
REMARK    1  A    between atoms: C1_1  and  C2_2
REMARK    2  A    between atoms: C7_8  and  C8_9
REMARK    3  A    between atoms: C7_8  and  C9_10
REMARK                            x       y       z     vdW  Elec       q    Type
REMARK                         _______ _______ _______ _____ _____    ______ ____
ROOT
ATOM      1  C1  UNL     1     -19.051  85.906 117.257  0.00  0.00    +0.000 C 
ATOM      2  C2  UNL     1     -19.067  84.525 116.650  0.00  0.00    +0.000 C 
ATOM      3  C3  UNL     1     -19.691  83.556 117.339  0.00  0.00    +0.000 C 
ATOM      4  C4  UNL     1     -19.758  82.185 116.832  0.00  0.00    +0.000 C 
ATOM      5  O1  UNL     1     -20.350  81.293 117.495  0.00  0.00    +0.000 OA
ATOM      6  C5  UNL     1     -19.137  81.856 115.552  0.00  0.00    +0.000 C 
ATOM      7  C6  UNL     1     -18.511  82.795 114.843  0.00  0.00    +0.000 C 
ATOM      8  C7  UNL     1     -18.391  84.247 115.293  0.00  0.00    +0.000 C 
ATOM      9  C8  UNL     1     -16.887  84.573 115.390  0.00  0.00    +0.000 C 
ATOM     10  C9  UNL     1     -19.044  85.120 114.204  0.00  0.00    +0.000 C 
ENDROOT
TORSDOF 0
ENDMDL
MODEL 6
REMARK VINA RESULT:      -3.0      1.650      3.173
REMARK  Name = .\Carvone.pdb
REMARK  3 active torsions:
REMARK  status: ('A' for Active; 'I' for Inactive)
REMARK    1  A    between atoms: C1_1  and  C2_2
REMARK    2  A    between atoms: C7_8  and  C8_9
REMARK    3  A    between atoms: C7_8  and  C9_10
REMARK                            x       y       z     vdW  Elec       q    Type
REMARK                         _______ _______ _______ _____ _____    ______ ____
ROOT
ATOM      1  C1  UNL     1     -19.006  83.941 116.318  0.00  0.00    +0.000 C 
ATOM      2  C2  UNL     1     -18.764  84.605 117.652  0.00  0.00    +0.000 C 
ATOM      3  C3  UNL     1     -17.928  83.990 118.503  0.00  0.00    +0.000 C 
ATOM      4  C4  UNL     1     -17.631  84.557 119.820  0.00  0.00    +0.000 C 
ATOM      5  O1  UNL     1     -16.843  83.962 120.602  0.00  0.00    +0.000 OA
ATOM      6  C5  UNL     1     -18.254  85.814 120.223  0.00  0.00    +0.000 C 
ATOM      7  C6  UNL     1     -19.088  86.449 119.400  0.00  0.00    +0.000 C 
ATOM      8  C7  UNL     1     -19.455  85.935 118.013  0.00  0.00    +0.000 C 
ATOM      9  C8  UNL     1     -20.985  85.745 117.984  0.00  0.00    +0.000 C 
ATOM     10  C9  UNL     1     -19.046  87.020 116.998  0.00  0.00    +0.000 C 
ENDROOT
TORSDOF 0
ENDMDL
MODEL 7
REMARK VINA RESULT:      -3.0      2.946      4.341
REMARK  Name = .\Carvone.pdb
REMARK  3 active torsions:
REMARK  status: ('A' for Active; 'I' for Inactive)
REMARK    1  A    between atoms: C1_1  and  C2_2
REMARK    2  A    between atoms: C7_8  and  C8_9
REMARK    3  A    between atoms: C7_8  and  C9_10
REMARK                            x       y       z     vdW  Elec       q    Type
REMARK                         _______ _______ _______ _____ _____    ______ ____
ROOT
ATOM      1  C1  UNL     1     -21.199  83.097 117.185  0.00  0.00    +0.000 C 
ATOM      2  C2  UNL     1     -20.082  82.895 116.190  0.00  0.00    +0.000 C 
ATOM      3  C3  UNL     1     -19.021  83.712 116.281  0.00  0.00    +0.000 C 
ATOM      4  C4  UNL     1     -17.889  83.593 115.360  0.00  0.00    +0.000 C 
ATOM      5  O1  UNL     1     -16.904  84.371 115.465  0.00  0.00    +0.000 OA
ATOM      6  C5  UNL     1     -17.907  82.569 114.320  0.00  0.00    +0.000 C 
ATOM      7  C6  UNL     1     -18.946  81.742 114.204  0.00  0.00    +0.000 C 
ATOM      8  C7  UNL     1     -20.167  81.792 115.116  0.00  0.00    +0.000 C 
ATOM      9  C8  UNL     1     -21.397  82.038 114.221  0.00  0.00    +0.000 C 
ATOM     10  C9  UNL     1     -20.285  80.416 115.799  0.00  0.00    +0.000 C 
ENDROOT
TORSDOF 0
ENDMDL
MODEL 8
REMARK VINA RESULT:      -2.8      1.314      2.629
REMARK  Name = .\Carvone.pdb
REMARK  3 active torsions:
REMARK  status: ('A' for Active; 'I' for Inactive)
REMARK    1  A    between atoms: C1_1  and  C2_2
REMARK    2  A    between atoms: C7_8  and  C8_9
REMARK    3  A    between atoms: C7_8  and  C9_10
REMARK                            x       y       z     vdW  Elec       q    Type
REMARK                         _______ _______ _______ _____ _____    ______ ____
ROOT
ATOM      1  C1  UNL     1     -17.716  84.009 114.292  0.00  0.00    +0.000 C 
ATOM      2  C2  UNL     1     -18.337  84.518 115.570  0.00  0.00    +0.000 C 
ATOM      3  C3  UNL     1     -17.852  84.037 116.725  0.00  0.00    +0.000 C 
ATOM      4  C4  UNL     1     -18.390  84.471 118.016  0.00  0.00    +0.000 C 
ATOM      5  O1  UNL     1     -17.919  84.006 119.087  0.00  0.00    +0.000 OA
ATOM      6  C5  UNL     1     -19.477  85.445 118.055  0.00  0.00    +0.000 C 
ATOM      7  C6  UNL     1     -19.980  85.942 116.925  0.00  0.00    +0.000 C 
ATOM      8  C7  UNL     1     -19.483  85.549 115.539  0.00  0.00    +0.000 C 
ATOM      9  C8  UNL     1     -20.684  84.961 114.772  0.00  0.00    +0.000 C 
ATOM     10  C9  UNL     1     -19.000  86.836 114.844  0.00  0.00    +0.000 C 
ENDROOT
TORSDOF 0
ENDMDL
MODEL 9
REMARK VINA RESULT:      -2.8      1.648      2.673
REMARK  Name = .\Carvone.pdb
REMARK  3 active torsions:
REMARK  status: ('A' for Active; 'I' for Inactive)
REMARK    1  A    between atoms: C1_1  and  C2_2
REMARK    2  A    between atoms: C7_8  and  C8_9
REMARK    3  A    between atoms: C7_8  and  C9_10
REMARK                            x       y       z     vdW  Elec       q    Type
REMARK                         _______ _______ _______ _____ _____    ______ ____
ROOT
ATOM      1  C1  UNL     1     -17.993  83.621 115.832  0.00  0.00    +0.000 C 
ATOM      2  C2  UNL     1     -19.115  84.293 116.585  0.00  0.00    +0.000 C 
ATOM      3  C3  UNL     1     -18.809  84.877 117.755  0.00  0.00    +0.000 C 
ATOM      4  C4  UNL     1     -19.829  85.554 118.557  0.00  0.00    +0.000 C 
ATOM      5  O1  UNL     1     -19.519  86.094 119.651  0.00  0.00    +0.000 OA
ATOM      6  C5  UNL     1     -21.210  85.599 118.082  0.00  0.00    +0.000 C 
ATOM      7  C6  UNL     1     -21.545  85.030 116.925  0.00  0.00    +0.000 C 
ATOM      8  C7  UNL     1     -20.551  84.304 116.025  0.00  0.00    +0.000 C 
ATOM      9  C8  UNL     1     -21.052  82.855 115.864  0.00  0.00    +0.000 C 
ATOM     10  C9  UNL     1     -20.566  85.016 114.658  0.00  0.00    +0.000 C 
ENDROOT
TORSDOF 0
ENDMDL
