MODEL 1
REMARK VINA RESULT:      -3.8      0.000      0.000
REMARK  Name = .\Carvacrol.pdb
REMARK  5 active torsions:
REMARK  status: ('A' for Active; 'I' for Inactive)
REMARK    1  A    between atoms: C1_1  and  C2_2
REMARK    2  A    between atoms: C2_2  and  C3_3
REMARK    3  A    between atoms: C2_2  and  C4_4
REMARK    4  A    between atoms: C6_6  and  O1_11
REMARK    5  A    between atoms: C7_7  and  C10_10
REMARK                            x       y       z     vdW  Elec       q    Type
REMARK                         _______ _______ _______ _____ _____    ______ ____
ROOT
ATOM      1  C4  UNL     1       7.221  73.047 100.075  0.00  0.00    +0.000 A 
ATOM      2  C5  UNL     1       6.847  72.066  99.140  0.00  0.00    +0.000 A 
ATOM      3  C6  UNL     1       7.415  70.784  99.181  0.00  0.00    +0.000 A 
ATOM      4  C7  UNL     1       8.370  70.470 100.164  0.00  0.00    +0.000 A 
ATOM      5  C8  UNL     1       8.745  71.448 101.098  0.00  0.00    +0.000 A 
ATOM      6  C9  UNL     1       8.177  72.723 101.055  0.00  0.00    +0.000 A 
ATOM      7  C10 UNL     1       8.983  69.100 100.213  0.00  0.00    +0.000 C 
ENDROOT
BRANCH   1   9
ATOM      8  C1  UNL     1       6.040  74.724  98.619  0.00  0.00    +0.000 C 
ATOM      9  C2  UNL     1       6.597  74.428 100.017  0.00  0.00    +0.000 C 
ATOM     10  C3  UNL     1       5.513  74.591 101.089  0.00  0.00    +0.000 C 
ENDBRANCH   1   9
BRANCH   3  11
ATOM     11  O1  UNL     1       7.034  69.822  98.245  0.00  0.00    +0.000 OA
ATOM     12  H14 UNL     1       6.400  70.041  97.486  0.00  0.00    +0.000 HD
ENDBRANCH   3  11
TORSDOF 2
ENDMDL
MODEL 2
REMARK VINA RESULT:      -3.6      2.097      4.592
REMARK  Name = .\Carvacrol.pdb
REMARK  5 active torsions:
REMARK  status: ('A' for Active; 'I' for Inactive)
REMARK    1  A    between atoms: C1_1  and  C2_2
REMARK    2  A    between atoms: C2_2  and  C3_3
REMARK    3  A    between atoms: C2_2  and  C4_4
REMARK    4  A    between atoms: C6_6  and  O1_11
REMARK    5  A    between atoms: C7_7  and  C10_10
REMARK                            x       y       z     vdW  Elec       q    Type
REMARK                         _______ _______ _______ _____ _____    ______ ____
ROOT
ATOM      1  C4  UNL     1       7.683  71.312 100.757  0.00  0.00    +0.000 A 
ATOM      2  C5  UNL     1       7.052  72.340 101.477  0.00  0.00    +0.000 A 
ATOM      3  C6  UNL     1       6.507  73.449 100.813  0.00  0.00    +0.000 A 
ATOM      4  C7  UNL     1       6.590  73.540  99.413  0.00  0.00    +0.000 A 
ATOM      5  C8  UNL     1       7.221  72.514  98.692  0.00  0.00    +0.000 A 
ATOM      6  C9  UNL     1       7.762  71.411  99.356  0.00  0.00    +0.000 A 
ATOM      7  C10 UNL     1       6.009  74.724  98.695  0.00  0.00    +0.000 C 
ENDROOT
BRANCH   1   9
ATOM      8  C1  UNL     1       7.172  69.120 101.880  0.00  0.00    +0.000 C 
ATOM      9  C2  UNL     1       8.267  70.119 101.491  0.00  0.00    +0.000 C 
ATOM     10  C3  UNL     1       9.365  69.442 100.661  0.00  0.00    +0.000 C 
ENDBRANCH   1   9
BRANCH   3  11
ATOM     11  O1  UNL     1       5.883  74.462 101.542  0.00  0.00    +0.000 OA
ATOM     12  H14 UNL     1       5.664  74.352 102.525  0.00  0.00    +0.000 HD
ENDBRANCH   3  11
TORSDOF 2
ENDMDL
MODEL 3
REMARK VINA RESULT:      -3.5      1.794      2.089
REMARK  Name = .\Carvacrol.pdb
REMARK  5 active torsions:
REMARK  status: ('A' for Active; 'I' for Inactive)
REMARK    1  A    between atoms: C1_1  and  C2_2
REMARK    2  A    between atoms: C2_2  and  C3_3
REMARK    3  A    between atoms: C2_2  and  C4_4
REMARK    4  A    between atoms: C6_6  and  O1_11
REMARK    5  A    between atoms: C7_7  and  C10_10
REMARK                            x       y       z     vdW  Elec       q    Type
REMARK                         _______ _______ _______ _____ _____    ______ ____
ROOT
ATOM      1  C4  UNL     1       6.597  72.736 100.104  0.00  0.00    +0.000 A 
ATOM      2  C5  UNL     1       6.149  71.997 101.212  0.00  0.00    +0.000 A 
ATOM      3  C6  UNL     1       6.299  70.603 101.251  0.00  0.00    +0.000 A 
ATOM      4  C7  UNL     1       6.902  69.932 100.174  0.00  0.00    +0.000 A 
ATOM      5  C8  UNL     1       7.351  70.668  99.066  0.00  0.00    +0.000 A 
ATOM      6  C9  UNL     1       7.200  72.056  99.031  0.00  0.00    +0.000 A 
ATOM      7  C10 UNL     1       7.066  68.439 100.209  0.00  0.00    +0.000 C 
ENDROOT
BRANCH   1   9
ATOM      8  C1  UNL     1       5.965  74.724  98.698  0.00  0.00    +0.000 C 
ATOM      9  C2  UNL     1       6.427  74.244 100.079  0.00  0.00    +0.000 C 
ATOM     10  C3  UNL     1       5.464  74.711 101.177  0.00  0.00    +0.000 C 
ENDBRANCH   1   9
BRANCH   3  11
ATOM     11  O1  UNL     1       5.848  69.883 102.358  0.00  0.00    +0.000 OA
ATOM     12  H14 UNL     1       5.896  68.871 102.389  0.00  0.00    +0.000 HD
ENDBRANCH   3  11
TORSDOF 2
ENDMDL
MODEL 4
REMARK VINA RESULT:      -3.3      2.161      4.566
REMARK  Name = .\Carvacrol.pdb
REMARK  5 active torsions:
REMARK  status: ('A' for Active; 'I' for Inactive)
REMARK    1  A    between atoms: C1_1  and  C2_2
REMARK    2  A    between atoms: C2_2  and  C3_3
REMARK    3  A    between atoms: C2_2  and  C4_4
REMARK    4  A    between atoms: C6_6  and  O1_11
REMARK    5  A    between atoms: C7_7  and  C10_10
REMARK                            x       y       z     vdW  Elec       q    Type
REMARK                         _______ _______ _______ _____ _____    ______ ____
ROOT
ATOM      1  C4  UNL     1       7.189  71.021 100.360  0.00  0.00    +0.000 A 
ATOM      2  C5  UNL     1       7.519  72.329  99.964  0.00  0.00    +0.000 A 
ATOM      3  C6  UNL     1       6.840  73.432 100.502  0.00  0.00    +0.000 A 
ATOM      4  C7  UNL     1       5.818  73.235 101.447  0.00  0.00    +0.000 A 
ATOM      5  C8  UNL     1       5.487  71.929 101.844  0.00  0.00    +0.000 A 
ATOM      6  C9  UNL     1       6.166  70.833 101.306  0.00  0.00    +0.000 A 
ATOM      7  C10 UNL     1       5.086  74.411 102.028  0.00  0.00    +0.000 C 
ENDROOT
BRANCH   1   9
ATOM      8  C1  UNL     1       8.392  68.869 100.863  0.00  0.00    +0.000 C 
ATOM      9  C2  UNL     1       7.934  69.839  99.767  0.00  0.00    +0.000 C 
ATOM     10  C3  UNL     1       7.083  69.121  98.713  0.00  0.00    +0.000 C 
ENDBRANCH   1   9
BRANCH   3  11
ATOM     11  O1  UNL     1       7.177  74.724 100.100  0.00  0.00    +0.000 OA
ATOM     12  H14 UNL     1       7.332  74.953  99.124  0.00  0.00    +0.000 HD
ENDBRANCH   3  11
TORSDOF 2
ENDMDL
MODEL 5
REMARK VINA RESULT:      -3.3      1.139      1.487
REMARK  Name = .\Carvacrol.pdb
REMARK  5 active torsions:
REMARK  status: ('A' for Active; 'I' for Inactive)
REMARK    1  A    between atoms: C1_1  and  C2_2
REMARK    2  A    between atoms: C2_2  and  C3_3
REMARK    3  A    between atoms: C2_2  and  C4_4
REMARK    4  A    between atoms: C6_6  and  O1_11
REMARK    5  A    between atoms: C7_7  and  C10_10
REMARK                            x       y       z     vdW  Elec       q    Type
REMARK                         _______ _______ _______ _____ _____    ______ ____
ROOT
ATOM      1  C4  UNL     1       7.471  71.688 100.211  0.00  0.00    +0.000 A 
ATOM      2  C5  UNL     1       7.081  71.077  99.007  0.00  0.00    +0.000 A 
ATOM      3  C6  UNL     1       7.339  69.718  98.778  0.00  0.00    +0.000 A 
ATOM      4  C7  UNL     1       7.995  68.952  99.758  0.00  0.00    +0.000 A 
ATOM      5  C8  UNL     1       8.385  69.561 100.961  0.00  0.00    +0.000 A 
ATOM      6  C9  UNL     1       8.126  70.915 101.186  0.00  0.00    +0.000 A 
ATOM      7  C10 UNL     1       8.275  67.496  99.519  0.00  0.00    +0.000 C 
ENDROOT
BRANCH   1   9
ATOM      8  C1  UNL     1       6.623  73.820  99.177  0.00  0.00    +0.000 C 
ATOM      9  C2  UNL     1       7.184  73.160 100.443  0.00  0.00    +0.000 C 
ATOM     10  C3  UNL     1       6.240  73.359 101.634  0.00  0.00    +0.000 C 
ENDBRANCH   1   9
BRANCH   3  11
ATOM     11  O1  UNL     1       6.947  69.125  97.577  0.00  0.00    +0.000 OA
ATOM     12  H14 UNL     1       6.251  69.552  96.976  0.00  0.00    +0.000 HD
ENDBRANCH   3  11
TORSDOF 2
ENDMDL
MODEL 6
REMARK VINA RESULT:      -3.2      1.755      2.449
REMARK  Name = .\Carvacrol.pdb
REMARK  5 active torsions:
REMARK  status: ('A' for Active; 'I' for Inactive)
REMARK    1  A    between atoms: C1_1  and  C2_2
REMARK    2  A    between atoms: C2_2  and  C3_3
REMARK    3  A    between atoms: C2_2  and  C4_4
REMARK    4  A    between atoms: C6_6  and  O1_11
REMARK    5  A    between atoms: C7_7  and  C10_10
REMARK                            x       y       z     vdW  Elec       q    Type
REMARK                         _______ _______ _______ _____ _____    ______ ____
ROOT
ATOM      1  C4  UNL     1       7.393  71.019 100.081  0.00  0.00    +0.000 A 
ATOM      2  C5  UNL     1       7.295  70.525  98.769  0.00  0.00    +0.000 A 
ATOM      3  C6  UNL     1       7.006  69.174  98.532  0.00  0.00    +0.000 A 
ATOM      4  C7  UNL     1       6.810  68.297  99.614  0.00  0.00    +0.000 A 
ATOM      5  C8  UNL     1       6.907  68.788 100.925  0.00  0.00    +0.000 A 
ATOM      6  C9  UNL     1       7.195  70.135 101.157  0.00  0.00    +0.000 A 
ATOM      7  C10 UNL     1       6.500  66.848  99.368  0.00  0.00    +0.000 C 
ENDROOT
BRANCH   1   9
ATOM      8  C1  UNL     1       6.816  73.387  99.458  0.00  0.00    +0.000 C 
ATOM      9  C2  UNL     1       7.707  72.484 100.320  0.00  0.00    +0.000 C 
ATOM     10  C3  UNL     1       7.583  72.842 101.806  0.00  0.00    +0.000 C 
ENDBRANCH   1   9
BRANCH   3  11
ATOM     11  O1  UNL     1       6.913  68.698  97.224  0.00  0.00    +0.000 OA
ATOM     12  H14 UNL     1       6.250  69.086  96.563  0.00  0.00    +0.000 HD
ENDBRANCH   3  11
TORSDOF 2
ENDMDL
MODEL 7
REMARK VINA RESULT:      -3.2      1.726      2.354
REMARK  Name = .\Carvacrol.pdb
REMARK  5 active torsions:
REMARK  status: ('A' for Active; 'I' for Inactive)
REMARK    1  A    between atoms: C1_1  and  C2_2
REMARK    2  A    between atoms: C2_2  and  C3_3
REMARK    3  A    between atoms: C2_2  and  C4_4
REMARK    4  A    between atoms: C6_6  and  O1_11
REMARK    5  A    between atoms: C7_7  and  C10_10
REMARK                            x       y       z     vdW  Elec       q    Type
REMARK                         _______ _______ _______ _____ _____    ______ ____
ROOT
ATOM      1  C4  UNL     1       5.833  73.043 101.133  0.00  0.00    +0.000 A 
ATOM      2  C5  UNL     1       6.756  73.223 100.089  0.00  0.00    +0.000 A 
ATOM      3  C6  UNL     1       7.942  72.476 100.045  0.00  0.00    +0.000 A 
ATOM      4  C7  UNL     1       8.217  71.535 101.053  0.00  0.00    +0.000 A 
ATOM      5  C8  UNL     1       7.297  71.354 102.097  0.00  0.00    +0.000 A 
ATOM      6  C9  UNL     1       6.117  72.100 102.137  0.00  0.00    +0.000 A 
ATOM      7  C10 UNL     1       9.485  70.731 101.012  0.00  0.00    +0.000 C 
ENDROOT
BRANCH   1   9
ATOM      8  C1  UNL     1       4.483  74.724 102.430  0.00  0.00    +0.000 C 
ATOM      9  C2  UNL     1       4.555  73.860 101.166  0.00  0.00    +0.000 C 
ATOM     10  C3  UNL     1       4.414  74.717  99.902  0.00  0.00    +0.000 C 
ENDBRANCH   1   9
BRANCH   3  11
ATOM     11  O1  UNL     1       8.849  72.666  99.002  0.00  0.00    +0.000 OA
ATOM     12  H14 UNL     1       9.548  73.399  99.033  0.00  0.00    +0.000 HD
ENDBRANCH   3  11
TORSDOF 2
ENDMDL
MODEL 8
REMARK VINA RESULT:      -3.1      2.330      4.709
REMARK  Name = .\Carvacrol.pdb
REMARK  5 active torsions:
REMARK  status: ('A' for Active; 'I' for Inactive)
REMARK    1  A    between atoms: C1_1  and  C2_2
REMARK    2  A    between atoms: C2_2  and  C3_3
REMARK    3  A    between atoms: C2_2  and  C4_4
REMARK    4  A    between atoms: C6_6  and  O1_11
REMARK    5  A    between atoms: C7_7  and  C10_10
REMARK                            x       y       z     vdW  Elec       q    Type
REMARK                         _______ _______ _______ _____ _____    ______ ____
ROOT
ATOM      1  C4  UNL     1       6.931  69.429  99.653  0.00  0.00    +0.000 A 
ATOM      2  C5  UNL     1       7.515  70.586  99.108  0.00  0.00    +0.000 A 
ATOM      3  C6  UNL     1       7.296  71.842  99.693  0.00  0.00    +0.000 A 
ATOM      4  C7  UNL     1       6.486  71.952 100.837  0.00  0.00    +0.000 A 
ATOM      5  C8  UNL     1       5.902  70.799 101.382  0.00  0.00    +0.000 A 
ATOM      6  C9  UNL     1       6.122  69.550 100.797  0.00  0.00    +0.000 A 
ATOM      7  C10 UNL     1       6.248  73.294 101.469  0.00  0.00    +0.000 C 
ENDROOT
BRANCH   1   9
ATOM      8  C1  UNL     1       6.315  66.990  99.656  0.00  0.00    +0.000 C 
ATOM      9  C2  UNL     1       7.178  68.079  99.007  0.00  0.00    +0.000 C 
ATOM     10  C3  UNL     1       6.944  68.138  97.492  0.00  0.00    +0.000 C 
ENDBRANCH   1   9
BRANCH   3  11
ATOM     11  O1  UNL     1       7.882  72.981  99.141  0.00  0.00    +0.000 OA
ATOM     12  H14 UNL     1       7.902  73.136  98.139  0.00  0.00    +0.000 HD
ENDBRANCH   3  11
TORSDOF 2
ENDMDL
MODEL 9
REMARK VINA RESULT:      -3.1      2.098      2.508
REMARK  Name = .\Carvacrol.pdb
REMARK  5 active torsions:
REMARK  status: ('A' for Active; 'I' for Inactive)
REMARK    1  A    between atoms: C1_1  and  C2_2
REMARK    2  A    between atoms: C2_2  and  C3_3
REMARK    3  A    between atoms: C2_2  and  C4_4
REMARK    4  A    between atoms: C6_6  and  O1_11
REMARK    5  A    between atoms: C7_7  and  C10_10
REMARK                            x       y       z     vdW  Elec       q    Type
REMARK                         _______ _______ _______ _____ _____    ______ ____
ROOT
ATOM      1  C4  UNL     1       6.830  71.653 100.200  0.00  0.00    +0.000 A 
ATOM      2  C5  UNL     1       6.297  70.838 101.213  0.00  0.00    +0.000 A 
ATOM      3  C6  UNL     1       6.242  69.445 101.057  0.00  0.00    +0.000 A 
ATOM      4  C7  UNL     1       6.722  68.851  99.876  0.00  0.00    +0.000 A 
ATOM      5  C8  UNL     1       7.254  69.664  98.863  0.00  0.00    +0.000 A 
ATOM      6  C9  UNL     1       7.308  71.051  99.023  0.00  0.00    +0.000 A 
ATOM      7  C10 UNL     1       6.665  67.361  99.701  0.00  0.00    +0.000 C 
ENDROOT
BRANCH   1   9
ATOM      8  C1  UNL     1       6.563  73.888  99.077  0.00  0.00    +0.000 C 
ATOM      9  C2  UNL     1       6.883  73.158 100.386  0.00  0.00    +0.000 C 
ATOM     10  C3  UNL     1       5.946  73.609 101.513  0.00  0.00    +0.000 C 
ENDBRANCH   1   9
BRANCH   3  11
ATOM     11  O1  UNL     1       5.709  68.649 102.071  0.00  0.00    +0.000 OA
ATOM     12  H14 UNL     1       5.548  67.657 101.939  0.00  0.00    +0.000 HD
ENDBRANCH   3  11
TORSDOF 2
ENDMDL
