MODEL 1
REMARK VINA RESULT:      -4.6      0.000      0.000
REMARK  Name = .\Carvone.pdb
REMARK  3 active torsions:
REMARK  status: ('A' for Active; 'I' for Inactive)
REMARK    1  A    between atoms: C1_1  and  C2_2
REMARK    2  A    between atoms: C7_8  and  C8_9
REMARK    3  A    between atoms: C7_8  and  C9_10
REMARK                            x       y       z     vdW  Elec       q    Type
REMARK                         _______ _______ _______ _____ _____    ______ ____
ROOT
ATOM      1  C1  UNL     1     -11.291  40.980  15.802  0.00  0.00    +0.000 C 
ATOM      2  C2  UNL     1     -10.508  41.144  14.523  0.00  0.00    +0.000 C 
ATOM      3  C3  UNL     1      -9.183  40.935  14.581  0.00  0.00    +0.000 C 
ATOM      4  C4  UNL     1      -8.340  41.070  13.392  0.00  0.00    +0.000 C 
ATOM      5  O1  UNL     1      -7.099  40.868  13.470  0.00  0.00    +0.000 OA
ATOM      6  C5  UNL     1      -8.943  41.440  12.115  0.00  0.00    +0.000 C 
ATOM      7  C6  UNL     1     -10.256  41.654  12.025  0.00  0.00    +0.000 C 
ATOM      8  C7  UNL     1     -11.210  41.536  13.208  0.00  0.00    +0.000 C 
ATOM      9  C8  UNL     1     -11.897  42.906  13.380  0.00  0.00    +0.000 C 
ATOM     10  C9  UNL     1     -12.260  40.468  12.846  0.00  0.00    +0.000 C 
ENDROOT
TORSDOF 0
ENDMDL
MODEL 2
REMARK VINA RESULT:      -4.3      1.244      2.689
REMARK  Name = .\Carvone.pdb
REMARK  3 active torsions:
REMARK  status: ('A' for Active; 'I' for Inactive)
REMARK    1  A    between atoms: C1_1  and  C2_2
REMARK    2  A    between atoms: C7_8  and  C8_9
REMARK    3  A    between atoms: C7_8  and  C9_10
REMARK                            x       y       z     vdW  Elec       q    Type
REMARK                         _______ _______ _______ _____ _____    ______ ____
ROOT
ATOM      1  C1  UNL     1     -12.038  42.479  12.978  0.00  0.00    +0.000 C 
ATOM      2  C2  UNL     1     -10.636  41.925  13.060  0.00  0.00    +0.000 C 
ATOM      3  C3  UNL     1      -9.935  41.854  11.917  0.00  0.00    +0.000 C 
ATOM      4  C4  UNL     1      -8.567  41.331  11.896  0.00  0.00    +0.000 C 
ATOM      5  O1  UNL     1      -7.928  41.273  10.813  0.00  0.00    +0.000 OA
ATOM      6  C5  UNL     1      -7.948  40.876  13.138  0.00  0.00    +0.000 C 
ATOM      7  C6  UNL     1      -8.618  40.935  14.288  0.00  0.00    +0.000 C 
ATOM      8  C7  UNL     1     -10.043  41.463  14.405  0.00  0.00    +0.000 C 
ATOM      9  C8  UNL     1     -10.907  40.326  14.985  0.00  0.00    +0.000 C 
ATOM     10  C9  UNL     1     -10.013  42.649  15.389  0.00  0.00    +0.000 C 
ENDROOT
TORSDOF 0
ENDMDL
MODEL 3
REMARK VINA RESULT:      -4.0      1.035      1.073
REMARK  Name = .\Carvone.pdb
REMARK  3 active torsions:
REMARK  status: ('A' for Active; 'I' for Inactive)
REMARK    1  A    between atoms: C1_1  and  C2_2
REMARK    2  A    between atoms: C7_8  and  C8_9
REMARK    3  A    between atoms: C7_8  and  C9_10
REMARK                            x       y       z     vdW  Elec       q    Type
REMARK                         _______ _______ _______ _____ _____    ______ ____
ROOT
ATOM      1  C1  UNL     1      -9.975  41.588  16.232  0.00  0.00    +0.000 C 
ATOM      2  C2  UNL     1      -9.936  41.615  14.724  0.00  0.00    +0.000 C 
ATOM      3  C3  UNL     1      -8.773  41.301  14.132  0.00  0.00    +0.000 C 
ATOM      4  C4  UNL     1      -8.638  41.299  12.674  0.00  0.00    +0.000 C 
ATOM      5  O1  UNL     1      -7.537  41.002  12.141  0.00  0.00    +0.000 OA
ATOM      6  C5  UNL     1      -9.786  41.644  11.841  0.00  0.00    +0.000 C 
ATOM      7  C6  UNL     1     -10.955  41.960  12.399  0.00  0.00    +0.000 C 
ATOM      8  C7  UNL     1     -11.188  41.988  13.905  0.00  0.00    +0.000 C 
ATOM      9  C8  UNL     1     -11.636  43.416  14.273  0.00  0.00    +0.000 C 
ATOM     10  C9  UNL     1     -12.321  40.990  14.213  0.00  0.00    +0.000 C 
ENDROOT
TORSDOF 0
ENDMDL
MODEL 4
REMARK VINA RESULT:      -3.9      1.513      2.981
REMARK  Name = .\Carvone.pdb
REMARK  3 active torsions:
REMARK  status: ('A' for Active; 'I' for Inactive)
REMARK    1  A    between atoms: C1_1  and  C2_2
REMARK    2  A    between atoms: C7_8  and  C8_9
REMARK    3  A    between atoms: C7_8  and  C9_10
REMARK                            x       y       z     vdW  Elec       q    Type
REMARK                         _______ _______ _______ _____ _____    ______ ____
ROOT
ATOM      1  C1  UNL     1      -9.343  41.492  11.996  0.00  0.00    +0.000 C 
ATOM      2  C2  UNL     1     -10.026  41.567  13.340  0.00  0.00    +0.000 C 
ATOM      3  C3  UNL     1      -9.243  41.559  14.430  0.00  0.00    +0.000 C 
ATOM      4  C4  UNL     1      -9.813  41.629  15.777  0.00  0.00    +0.000 C 
ATOM      5  O1  UNL     1      -9.058  41.620  16.785  0.00  0.00    +0.000 OA
ATOM      6  C5  UNL     1     -11.261  41.707  15.946  0.00  0.00    +0.000 C 
ATOM      7  C6  UNL     1     -12.066  41.717  14.883  0.00  0.00    +0.000 C 
ATOM      8  C7  UNL     1     -11.562  41.648  13.446  0.00  0.00    +0.000 C 
ATOM      9  C8  UNL     1     -12.190  40.397  12.800  0.00  0.00    +0.000 C 
ATOM     10  C9  UNL     1     -12.062  42.915  12.724  0.00  0.00    +0.000 C 
ENDROOT
TORSDOF 0
ENDMDL
MODEL 5
REMARK VINA RESULT:      -3.9      2.583      4.048
REMARK  Name = .\Carvone.pdb
REMARK  3 active torsions:
REMARK  status: ('A' for Active; 'I' for Inactive)
REMARK    1  A    between atoms: C1_1  and  C2_2
REMARK    2  A    between atoms: C7_8  and  C8_9
REMARK    3  A    between atoms: C7_8  and  C9_10
REMARK                            x       y       z     vdW  Elec       q    Type
REMARK                         _______ _______ _______ _____ _____    ______ ____
ROOT
ATOM      1  C1  UNL     1     -11.455  40.800  12.384  0.00  0.00    +0.000 C 
ATOM      2  C2  UNL     1     -11.364  41.857  13.458  0.00  0.00    +0.000 C 
ATOM      3  C3  UNL     1     -12.170  42.924  13.341  0.00  0.00    +0.000 C 
ATOM      4  C4  UNL     1     -12.154  44.001  14.333  0.00  0.00    +0.000 C 
ATOM      5  O1  UNL     1     -12.919  44.993  14.203  0.00  0.00    +0.000 OA
ATOM      6  C5  UNL     1     -11.246  43.920  15.474  0.00  0.00    +0.000 C 
ATOM      7  C6  UNL     1     -10.434  42.872  15.618  0.00  0.00    +0.000 C 
ATOM      8  C7  UNL     1     -10.383  41.707  14.637  0.00  0.00    +0.000 C 
ATOM      9  C8  UNL     1      -8.940  41.625  14.099  0.00  0.00    +0.000 C 
ATOM     10  C9  UNL     1     -10.718  40.427  15.427  0.00  0.00    +0.000 C 
ENDROOT
TORSDOF 0
ENDMDL
MODEL 6
REMARK VINA RESULT:      -3.8      3.005      4.694
REMARK  Name = .\Carvone.pdb
REMARK  3 active torsions:
REMARK  status: ('A' for Active; 'I' for Inactive)
REMARK    1  A    between atoms: C1_1  and  C2_2
REMARK    2  A    between atoms: C7_8  and  C8_9
REMARK    3  A    between atoms: C7_8  and  C9_10
REMARK                            x       y       z     vdW  Elec       q    Type
REMARK                         _______ _______ _______ _____ _____    ______ ____
ROOT
ATOM      1  C1  UNL     1      -9.774  40.684  14.916  0.00  0.00    +0.000 C 
ATOM      2  C2  UNL     1     -10.205  41.594  16.041  0.00  0.00    +0.000 C 
ATOM      3  C3  UNL     1      -9.806  42.874  15.985  0.00  0.00    +0.000 C 
ATOM      4  C4  UNL     1     -10.174  43.831  17.030  0.00  0.00    +0.000 C 
ATOM      5  O1  UNL     1      -9.788  45.028  16.956  0.00  0.00    +0.000 OA
ATOM      6  C5  UNL     1     -10.990  43.392  18.158  0.00  0.00    +0.000 C 
ATOM      7  C6  UNL     1     -11.402  42.127  18.242  0.00  0.00    +0.000 C 
ATOM      8  C7  UNL     1     -11.068  41.063  17.203  0.00  0.00    +0.000 C 
ATOM      9  C8  UNL     1     -10.313  39.933  17.931  0.00  0.00    +0.000 C 
ATOM     10  C9  UNL     1     -12.403  40.527  16.651  0.00  0.00    +0.000 C 
ENDROOT
TORSDOF 0
ENDMDL
MODEL 7
REMARK VINA RESULT:      -3.7      2.303      3.370
REMARK  Name = .\Carvone.pdb
REMARK  3 active torsions:
REMARK  status: ('A' for Active; 'I' for Inactive)
REMARK    1  A    between atoms: C1_1  and  C2_2
REMARK    2  A    between atoms: C7_8  and  C8_9
REMARK    3  A    between atoms: C7_8  and  C9_10
REMARK                            x       y       z     vdW  Elec       q    Type
REMARK                         _______ _______ _______ _____ _____    ______ ____
ROOT
ATOM      1  C1  UNL     1      -9.220  40.727  14.656  0.00  0.00    +0.000 C 
ATOM      2  C2  UNL     1     -10.234  41.835  14.513  0.00  0.00    +0.000 C 
ATOM      3  C3  UNL     1     -10.283  42.754  15.491  0.00  0.00    +0.000 C 
ATOM      4  C4  UNL     1     -11.233  43.867  15.441  0.00  0.00    +0.000 C 
ATOM      5  O1  UNL     1     -11.261  44.717  16.369  0.00  0.00    +0.000 OA
ATOM      6  C5  UNL     1     -12.149  43.985  14.310  0.00  0.00    +0.000 C 
ATOM      7  C6  UNL     1     -12.125  43.089  13.324  0.00  0.00    +0.000 C 
ATOM      8  C7  UNL     1     -11.171  41.900  13.291  0.00  0.00    +0.000 C 
ATOM      9  C8  UNL     1     -12.033  40.623  13.235  0.00  0.00    +0.000 C 
ATOM     10  C9  UNL     1     -10.332  42.020  12.004  0.00  0.00    +0.000 C 
ENDROOT
TORSDOF 0
ENDMDL
MODEL 8
REMARK VINA RESULT:      -3.7      1.614      3.099
REMARK  Name = .\Carvone.pdb
REMARK  3 active torsions:
REMARK  status: ('A' for Active; 'I' for Inactive)
REMARK    1  A    between atoms: C1_1  and  C2_2
REMARK    2  A    between atoms: C7_8  and  C8_9
REMARK    3  A    between atoms: C7_8  and  C9_10
REMARK                            x       y       z     vdW  Elec       q    Type
REMARK                         _______ _______ _______ _____ _____    ______ ____
ROOT
ATOM      1  C1  UNL     1     -13.569  39.749  13.904  0.00  0.00    +0.000 C 
ATOM      2  C2  UNL     1     -12.185  40.347  13.976  0.00  0.00    +0.000 C 
ATOM      3  C3  UNL     1     -11.700  40.914  12.860  0.00  0.00    +0.000 C 
ATOM      4  C4  UNL     1     -10.368  41.520  12.833  0.00  0.00    +0.000 C 
ATOM      5  O1  UNL     1      -9.934  42.047  11.775  0.00  0.00    +0.000 OA
ATOM      6  C5  UNL     1      -9.544  41.511  14.038  0.00  0.00    +0.000 C 
ATOM      7  C6  UNL     1      -9.998  40.956  15.162  0.00  0.00    +0.000 C 
ATOM      8  C7  UNL     1     -11.370  40.303  15.283  0.00  0.00    +0.000 C 
ATOM      9  C8  UNL     1     -11.143  38.836  15.699  0.00  0.00    +0.000 C 
ATOM     10  C9  UNL     1     -12.135  41.048  16.394  0.00  0.00    +0.000 C 
ENDROOT
TORSDOF 0
ENDMDL
MODEL 9
REMARK VINA RESULT:      -3.7      1.216      1.395
REMARK  Name = .\Carvone.pdb
REMARK  3 active torsions:
REMARK  status: ('A' for Active; 'I' for Inactive)
REMARK    1  A    between atoms: C1_1  and  C2_2
REMARK    2  A    between atoms: C7_8  and  C8_9
REMARK    3  A    between atoms: C7_8  and  C9_10
REMARK                            x       y       z     vdW  Elec       q    Type
REMARK                         _______ _______ _______ _____ _____    ______ ____
ROOT
ATOM      1  C1  UNL     1     -11.468  39.359  16.332  0.00  0.00    +0.000 C 
ATOM      2  C2  UNL     1     -10.979  40.200  15.179  0.00  0.00    +0.000 C 
ATOM      3  C3  UNL     1      -9.657  40.420  15.094  0.00  0.00    +0.000 C 
ATOM      4  C4  UNL     1      -9.088  41.224  14.011  0.00  0.00    +0.000 C 
ATOM      5  O1  UNL     1      -7.845  41.416  13.952  0.00  0.00    +0.000 OA
ATOM      6  C5  UNL     1      -9.968  41.801  12.999  0.00  0.00    +0.000 C 
ATOM      7  C6  UNL     1     -11.285  41.600  13.055  0.00  0.00    +0.000 C 
ATOM      8  C7  UNL     1     -11.965  40.779  14.145  0.00  0.00    +0.000 C 
ATOM      9  C8  UNL     1     -12.971  41.705  14.855  0.00  0.00    +0.000 C 
ATOM     10  C9  UNL     1     -12.716  39.628  13.449  0.00  0.00    +0.000 C 
ENDROOT
TORSDOF 0
ENDMDL
