MODEL 1
REMARK VINA RESULT:      -4.3      0.000      0.000
REMARK  Name = .\Carvacrol.pdb
REMARK  5 active torsions:
REMARK  status: ('A' for Active; 'I' for Inactive)
REMARK    1  A    between atoms: C1_1  and  C2_2
REMARK    2  A    between atoms: C2_2  and  C3_3
REMARK    3  A    between atoms: C2_2  and  C4_4
REMARK    4  A    between atoms: C6_6  and  O1_11
REMARK    5  A    between atoms: C7_7  and  C10_10
REMARK                            x       y       z     vdW  Elec       q    Type
REMARK                         _______ _______ _______ _____ _____    ______ ____
ROOT
ATOM      1  C4  UNL     1      -4.089  66.587  16.756  0.00  0.00    +0.000 A 
ATOM      2  C5  UNL     1      -5.479  66.629  16.963  0.00  0.00    +0.000 A 
ATOM      3  C6  UNL     1      -6.291  65.549  16.587  0.00  0.00    +0.000 A 
ATOM      4  C7  UNL     1      -5.716  64.410  15.995  0.00  0.00    +0.000 A 
ATOM      5  C8  UNL     1      -4.329  64.367  15.788  0.00  0.00    +0.000 A 
ATOM      6  C9  UNL     1      -3.523  65.444  16.164  0.00  0.00    +0.000 A 
ATOM      7  C10 UNL     1      -6.580  63.250  15.589  0.00  0.00    +0.000 C 
ENDROOT
BRANCH   1   9
ATOM      8  C1  UNL     1      -2.738  67.611  18.615  0.00  0.00    +0.000 C 
ATOM      9  C2  UNL     1      -3.225  67.764  17.170  0.00  0.00    +0.000 C 
ATOM     10  C3  UNL     1      -2.047  67.951  16.206  0.00  0.00    +0.000 C 
ENDBRANCH   1   9
BRANCH   3  11
ATOM     11  O1  UNL     1      -7.669  65.605  16.798  0.00  0.00    +0.000 OA
ATOM     12  H14 UNL     1      -8.298  65.989  16.102  0.00  0.00    +0.000 HD
ENDBRANCH   3  11
TORSDOF 2
ENDMDL
MODEL 2
REMARK VINA RESULT:      -4.2      2.041      2.949
REMARK  Name = .\Carvacrol.pdb
REMARK  5 active torsions:
REMARK  status: ('A' for Active; 'I' for Inactive)
REMARK    1  A    between atoms: C1_1  and  C2_2
REMARK    2  A    between atoms: C2_2  and  C3_3
REMARK    3  A    between atoms: C2_2  and  C4_4
REMARK    4  A    between atoms: C6_6  and  O1_11
REMARK    5  A    between atoms: C7_7  and  C10_10
REMARK                            x       y       z     vdW  Elec       q    Type
REMARK                         _______ _______ _______ _____ _____    ______ ____
ROOT
ATOM      1  C4  UNL     1      -5.225  65.091  15.454  0.00  0.00    +0.000 A 
ATOM      2  C5  UNL     1      -5.602  65.110  14.101  0.00  0.00    +0.000 A 
ATOM      3  C6  UNL     1      -6.608  64.256  13.625  0.00  0.00    +0.000 A 
ATOM      4  C7  UNL     1      -7.251  63.370  14.507  0.00  0.00    +0.000 A 
ATOM      5  C8  UNL     1      -6.877  63.349  15.859  0.00  0.00    +0.000 A 
ATOM      6  C9  UNL     1      -5.874  64.201  16.329  0.00  0.00    +0.000 A 
ATOM      7  C10 UNL     1      -8.330  62.453  14.005  0.00  0.00    +0.000 C 
ENDROOT
BRANCH   1   9
ATOM      8  C1  UNL     1      -4.668  66.971  17.030  0.00  0.00    +0.000 C 
ATOM      9  C2  UNL     1      -4.134  66.021  15.952  0.00  0.00    +0.000 C 
ATOM     10  C3  UNL     1      -2.923  65.230  16.462  0.00  0.00    +0.000 C 
ENDBRANCH   1   9
BRANCH   3  11
ATOM     11  O1  UNL     1      -6.971  64.286  12.279  0.00  0.00    +0.000 OA
ATOM     12  H14 UNL     1      -6.999  63.443  11.717  0.00  0.00    +0.000 HD
ENDBRANCH   3  11
TORSDOF 2
ENDMDL
MODEL 3
REMARK VINA RESULT:      -4.2      1.829      4.812
REMARK  Name = .\Carvacrol.pdb
REMARK  5 active torsions:
REMARK  status: ('A' for Active; 'I' for Inactive)
REMARK    1  A    between atoms: C1_1  and  C2_2
REMARK    2  A    between atoms: C2_2  and  C3_3
REMARK    3  A    between atoms: C2_2  and  C4_4
REMARK    4  A    between atoms: C6_6  and  O1_11
REMARK    5  A    between atoms: C7_7  and  C10_10
REMARK                            x       y       z     vdW  Elec       q    Type
REMARK                         _______ _______ _______ _____ _____    ______ ____
ROOT
ATOM      1  C4  UNL     1      -5.893  64.642  16.053  0.00  0.00    +0.000 A 
ATOM      2  C5  UNL     1      -4.554  64.337  15.753  0.00  0.00    +0.000 A 
ATOM      3  C6  UNL     1      -3.524  65.228  16.091  0.00  0.00    +0.000 A 
ATOM      4  C7  UNL     1      -3.827  66.440  16.736  0.00  0.00    +0.000 A 
ATOM      5  C8  UNL     1      -5.163  66.746  17.036  0.00  0.00    +0.000 A 
ATOM      6  C9  UNL     1      -6.186  65.856  16.698  0.00  0.00    +0.000 A 
ATOM      7  C10 UNL     1      -2.729  67.398  17.100  0.00  0.00    +0.000 C 
ENDROOT
BRANCH   1   9
ATOM      8  C1  UNL     1      -7.392  63.820  14.208  0.00  0.00    +0.000 C 
ATOM      9  C2  UNL     1      -6.994  63.667  15.680  0.00  0.00    +0.000 C 
ATOM     10  C3  UNL     1      -6.586  62.223  15.996  0.00  0.00    +0.000 C 
ENDBRANCH   1   9
BRANCH   3  11
ATOM     11  O1  UNL     1      -2.200  64.912  15.786  0.00  0.00    +0.000 OA
ATOM     12  H14 UNL     1      -1.821  63.987  15.959  0.00  0.00    +0.000 HD
ENDBRANCH   3  11
TORSDOF 2
ENDMDL
MODEL 4
REMARK VINA RESULT:      -4.1      1.997      2.663
REMARK  Name = .\Carvacrol.pdb
REMARK  5 active torsions:
REMARK  status: ('A' for Active; 'I' for Inactive)
REMARK    1  A    between atoms: C1_1  and  C2_2
REMARK    2  A    between atoms: C2_2  and  C3_3
REMARK    3  A    between atoms: C2_2  and  C4_4
REMARK    4  A    between atoms: C6_6  and  O1_11
REMARK    5  A    between atoms: C7_7  and  C10_10
REMARK                            x       y       z     vdW  Elec       q    Type
REMARK                         _______ _______ _______ _____ _____    ______ ____
ROOT
ATOM      1  C4  UNL     1      -3.749  66.823  16.794  0.00  0.00    +0.000 A 
ATOM      2  C5  UNL     1      -3.941  66.119  15.593  0.00  0.00    +0.000 A 
ATOM      3  C6  UNL     1      -5.176  66.161  14.928  0.00  0.00    +0.000 A 
ATOM      4  C7  UNL     1      -6.237  66.911  15.464  0.00  0.00    +0.000 A 
ATOM      5  C8  UNL     1      -6.048  67.614  16.664  0.00  0.00    +0.000 A 
ATOM      6  C9  UNL     1      -4.816  67.571  17.323  0.00  0.00    +0.000 A 
ATOM      7  C10 UNL     1      -7.562  66.960  14.758  0.00  0.00    +0.000 C 
ENDROOT
BRANCH   1   9
ATOM      8  C1  UNL     1      -2.539  67.178  18.971  0.00  0.00    +0.000 C 
ATOM      9  C2  UNL     1      -2.407  66.767  17.500  0.00  0.00    +0.000 C 
ATOM     10  C3  UNL     1      -1.771  65.378  17.370  0.00  0.00    +0.000 C 
ENDBRANCH   1   9
BRANCH   3  11
ATOM     11  O1  UNL     1      -5.351  65.456  13.737  0.00  0.00    +0.000 OA
ATOM     12  H14 UNL     1      -5.669  65.915  12.890  0.00  0.00    +0.000 HD
ENDBRANCH   3  11
TORSDOF 2
ENDMDL
MODEL 5
REMARK VINA RESULT:      -4.0      3.863      6.591
REMARK  Name = .\Carvacrol.pdb
REMARK  5 active torsions:
REMARK  status: ('A' for Active; 'I' for Inactive)
REMARK    1  A    between atoms: C1_1  and  C2_2
REMARK    2  A    between atoms: C2_2  and  C3_3
REMARK    3  A    between atoms: C2_2  and  C4_4
REMARK    4  A    between atoms: C6_6  and  O1_11
REMARK    5  A    between atoms: C7_7  and  C10_10
REMARK                            x       y       z     vdW  Elec       q    Type
REMARK                         _______ _______ _______ _____ _____    ______ ____
ROOT
ATOM      1  C4  UNL     1      -2.328  68.322  19.067  0.00  0.00    +0.000 A 
ATOM      2  C5  UNL     1      -2.662  68.764  20.358  0.00  0.00    +0.000 A 
ATOM      3  C6  UNL     1      -1.925  69.783  20.979  0.00  0.00    +0.000 A 
ATOM      4  C7  UNL     1      -0.840  70.373  20.309  0.00  0.00    +0.000 A 
ATOM      5  C8  UNL     1      -0.504  69.933  19.019  0.00  0.00    +0.000 A 
ATOM      6  C9  UNL     1      -1.241  68.918  18.403  0.00  0.00    +0.000 A 
ATOM      7  C10 UNL     1      -0.046  71.465  20.968  0.00  0.00    +0.000 C 
ENDROOT
BRANCH   1   9
ATOM      8  C1  UNL     1      -4.192  67.797  17.460  0.00  0.00    +0.000 C 
ATOM      9  C2  UNL     1      -3.136  67.219  18.409  0.00  0.00    +0.000 C 
ATOM     10  C3  UNL     1      -2.225  66.224  17.681  0.00  0.00    +0.000 C 
ENDBRANCH   1   9
BRANCH   3  11
ATOM     11  O1  UNL     1      -2.268  70.211  22.262  0.00  0.00    +0.000 OA
ATOM     12  H14 UNL     1      -1.566  70.365  22.977  0.00  0.00    +0.000 HD
ENDBRANCH   3  11
TORSDOF 2
ENDMDL
MODEL 6
REMARK VINA RESULT:      -4.0      1.847      2.253
REMARK  Name = .\Carvacrol.pdb
REMARK  5 active torsions:
REMARK  status: ('A' for Active; 'I' for Inactive)
REMARK    1  A    between atoms: C1_1  and  C2_2
REMARK    2  A    between atoms: C2_2  and  C3_3
REMARK    3  A    between atoms: C2_2  and  C4_4
REMARK    4  A    between atoms: C6_6  and  O1_11
REMARK    5  A    between atoms: C7_7  and  C10_10
REMARK                            x       y       z     vdW  Elec       q    Type
REMARK                         _______ _______ _______ _____ _____    ______ ____
ROOT
ATOM      1  C4  UNL     1      -3.945  66.950  16.423  0.00  0.00    +0.000 A 
ATOM      2  C5  UNL     1      -3.632  66.504  15.128  0.00  0.00    +0.000 A 
ATOM      3  C6  UNL     1      -4.523  65.688  14.416  0.00  0.00    +0.000 A 
ATOM      4  C7  UNL     1      -5.745  65.307  14.999  0.00  0.00    +0.000 A 
ATOM      5  C8  UNL     1      -6.060  65.752  16.292  0.00  0.00    +0.000 A 
ATOM      6  C9  UNL     1      -5.170  66.565  16.997  0.00  0.00    +0.000 A 
ATOM      7  C10 UNL     1      -6.704  64.433  14.243  0.00  0.00    +0.000 C 
ENDROOT
BRANCH   1   9
ATOM      8  C1  UNL     1      -2.879  67.421  18.652  0.00  0.00    +0.000 C 
ATOM      9  C2  UNL     1      -2.970  67.833  17.178  0.00  0.00    +0.000 C 
ATOM     10  C3  UNL     1      -1.587  67.823  16.516  0.00  0.00    +0.000 C 
ENDBRANCH   1   9
BRANCH   3  11
ATOM     11  O1  UNL     1      -4.197  65.252  13.132  0.00  0.00    +0.000 OA
ATOM     12  H14 UNL     1      -4.912  65.055  12.440  0.00  0.00    +0.000 HD
ENDBRANCH   3  11
TORSDOF 2
ENDMDL
MODEL 7
REMARK VINA RESULT:      -3.9      4.117      6.871
REMARK  Name = .\Carvacrol.pdb
REMARK  5 active torsions:
REMARK  status: ('A' for Active; 'I' for Inactive)
REMARK    1  A    between atoms: C1_1  and  C2_2
REMARK    2  A    between atoms: C2_2  and  C3_3
REMARK    3  A    between atoms: C2_2  and  C4_4
REMARK    4  A    between atoms: C6_6  and  O1_11
REMARK    5  A    between atoms: C7_7  and  C10_10
REMARK                            x       y       z     vdW  Elec       q    Type
REMARK                         _______ _______ _______ _____ _____    ______ ____
ROOT
ATOM      1  C4  UNL     1      -2.307  68.393  19.256  0.00  0.00    +0.000 A 
ATOM      2  C5  UNL     1      -1.188  69.204  19.004  0.00  0.00    +0.000 A 
ATOM      3  C6  UNL     1      -0.813  70.208  19.908  0.00  0.00    +0.000 A 
ATOM      4  C7  UNL     1      -1.560  70.411  21.082  0.00  0.00    +0.000 A 
ATOM      5  C8  UNL     1      -2.678  69.602  21.335  0.00  0.00    +0.000 A 
ATOM      6  C9  UNL     1      -3.048  68.602  20.432  0.00  0.00    +0.000 A 
ATOM      7  C10 UNL     1      -1.164  71.485  22.055  0.00  0.00    +0.000 C 
ENDROOT
BRANCH   1   9
ATOM      8  C1  UNL     1      -4.029  67.644  17.582  0.00  0.00    +0.000 C 
ATOM      9  C2  UNL     1      -2.698  67.311  18.266  0.00  0.00    +0.000 C 
ATOM     10  C3  UNL     1      -1.589  67.077  17.234  0.00  0.00    +0.000 C 
ENDBRANCH   1   9
BRANCH   3  11
ATOM     11  O1  UNL     1       0.301  71.006  19.644  0.00  0.00    +0.000 OA
ATOM     12  H14 UNL     1       1.055  70.686  19.047  0.00  0.00    +0.000 HD
ENDBRANCH   3  11
TORSDOF 2
ENDMDL
MODEL 8
REMARK VINA RESULT:      -3.9      3.049      4.680
REMARK  Name = .\Carvacrol.pdb
REMARK  5 active torsions:
REMARK  status: ('A' for Active; 'I' for Inactive)
REMARK    1  A    between atoms: C1_1  and  C2_2
REMARK    2  A    between atoms: C2_2  and  C3_3
REMARK    3  A    between atoms: C2_2  and  C4_4
REMARK    4  A    between atoms: C6_6  and  O1_11
REMARK    5  A    between atoms: C7_7  and  C10_10
REMARK                            x       y       z     vdW  Elec       q    Type
REMARK                         _______ _______ _______ _____ _____    ______ ____
ROOT
ATOM      1  C4  UNL     1      -3.515  65.459  16.007  0.00  0.00    +0.000 A 
ATOM      2  C5  UNL     1      -2.878  64.467  15.243  0.00  0.00    +0.000 A 
ATOM      3  C6  UNL     1      -1.627  63.961  15.627  0.00  0.00    +0.000 A 
ATOM      4  C7  UNL     1      -0.998  64.447  16.786  0.00  0.00    +0.000 A 
ATOM      5  C8  UNL     1      -1.633  65.439  17.550  0.00  0.00    +0.000 A 
ATOM      6  C9  UNL     1      -2.879  65.940  17.165  0.00  0.00    +0.000 A 
ATOM      7  C10 UNL     1       0.341  63.910  17.203  0.00  0.00    +0.000 C 
ENDROOT
BRANCH   1   9
ATOM      8  C1  UNL     1      -5.484  65.123  14.477  0.00  0.00    +0.000 C 
ATOM      9  C2  UNL     1      -4.868  65.995  15.577  0.00  0.00    +0.000 C 
ATOM     10  C3  UNL     1      -5.817  66.126  16.775  0.00  0.00    +0.000 C 
ENDBRANCH   1   9
BRANCH   3  11
ATOM     11  O1  UNL     1      -1.007  62.976  14.858  0.00  0.00    +0.000 OA
ATOM     12  H14 UNL     1      -1.109  62.946  13.850  0.00  0.00    +0.000 HD
ENDBRANCH   3  11
TORSDOF 2
ENDMDL
MODEL 9
REMARK VINA RESULT:      -3.9      2.383      3.311
REMARK  Name = .\Carvacrol.pdb
REMARK  5 active torsions:
REMARK  status: ('A' for Active; 'I' for Inactive)
REMARK    1  A    between atoms: C1_1  and  C2_2
REMARK    2  A    between atoms: C2_2  and  C3_3
REMARK    3  A    between atoms: C2_2  and  C4_4
REMARK    4  A    between atoms: C6_6  and  O1_11
REMARK    5  A    between atoms: C7_7  and  C10_10
REMARK                            x       y       z     vdW  Elec       q    Type
REMARK                         _______ _______ _______ _____ _____    ______ ____
ROOT
ATOM      1  C4  UNL     1      -2.994  67.803  18.162  0.00  0.00    +0.000 A 
ATOM      2  C5  UNL     1      -2.086  66.754  17.940  0.00  0.00    +0.000 A 
ATOM      3  C6  UNL     1      -2.407  65.701  17.071  0.00  0.00    +0.000 A 
ATOM      4  C7  UNL     1      -3.648  65.688  16.411  0.00  0.00    +0.000 A 
ATOM      5  C8  UNL     1      -4.556  66.735  16.631  0.00  0.00    +0.000 A 
ATOM      6  C9  UNL     1      -4.233  67.782  17.497  0.00  0.00    +0.000 A 
ATOM      7  C10 UNL     1      -3.998  64.564  15.479  0.00  0.00    +0.000 C 
ENDROOT
BRANCH   1   9
ATOM      8  C1  UNL     1      -2.970  68.574  20.556  0.00  0.00    +0.000 C 
ATOM      9  C2  UNL     1      -2.631  68.935  19.105  0.00  0.00    +0.000 C 
ATOM     10  C3  UNL     1      -1.154  69.321  18.963  0.00  0.00    +0.000 C 
ENDBRANCH   1   9
BRANCH   3  11
ATOM     11  O1  UNL     1      -1.495  64.665  16.862  0.00  0.00    +0.000 OA
ATOM     12  H14 UNL     1      -0.610  64.629  17.354  0.00  0.00    +0.000 HD
ENDBRANCH   3  11
TORSDOF 2
ENDMDL
