MODEL 1
REMARK VINA RESULT:      -4.2      0.000      0.000
REMARK  Name = .\Carvone.pdb
REMARK  3 active torsions:
REMARK  status: ('A' for Active; 'I' for Inactive)
REMARK    1  A    between atoms: C1_1  and  C2_2
REMARK    2  A    between atoms: C7_8  and  C8_9
REMARK    3  A    between atoms: C7_8  and  C9_10
REMARK                            x       y       z     vdW  Elec       q    Type
REMARK                         _______ _______ _______ _____ _____    ______ ____
ROOT
ATOM      1  C1  UNL     1       4.385  59.743  82.104  0.00  0.00    +0.000 C 
ATOM      2  C2  UNL     1       3.517  60.629  81.244  0.00  0.00    +0.000 C 
ATOM      3  C3  UNL     1       2.479  60.052  80.617  0.00  0.00    +0.000 C 
ATOM      4  C4  UNL     1       1.582  60.830  79.761  0.00  0.00    +0.000 C 
ATOM      5  O1  UNL     1       0.614  60.268  79.183  0.00  0.00    +0.000 OA
ATOM      6  C5  UNL     1       1.813  62.260  79.580  0.00  0.00    +0.000 C 
ATOM      7  C6  UNL     1       2.834  62.862  80.190  0.00  0.00    +0.000 C 
ATOM      8  C7  UNL     1       3.819  62.133  81.098  0.00  0.00    +0.000 C 
ATOM      9  C8  UNL     1       5.224  62.320  80.493  0.00  0.00    +0.000 C 
ATOM     10  C9  UNL     1       3.753  62.809  82.481  0.00  0.00    +0.000 C 
ENDROOT
TORSDOF 0
ENDMDL
MODEL 2
REMARK VINA RESULT:      -4.1      0.597      2.546
REMARK  Name = .\Carvone.pdb
REMARK  3 active torsions:
REMARK  status: ('A' for Active; 'I' for Inactive)
REMARK    1  A    between atoms: C1_1  and  C2_2
REMARK    2  A    between atoms: C7_8  and  C8_9
REMARK    3  A    between atoms: C7_8  and  C9_10
REMARK                            x       y       z     vdW  Elec       q    Type
REMARK                         _______ _______ _______ _____ _____    ______ ____
ROOT
ATOM      1  C1  UNL     1       3.096  64.349  80.527  0.00  0.00    +0.000 C 
ATOM      2  C2  UNL     1       2.987  62.843  80.550  0.00  0.00    +0.000 C 
ATOM      3  C3  UNL     1       2.003  62.286  79.826  0.00  0.00    +0.000 C 
ATOM      4  C4  UNL     1       1.817  60.835  79.787  0.00  0.00    +0.000 C 
ATOM      5  O1  UNL     1       0.888  60.334  79.100  0.00  0.00    +0.000 OA
ATOM      6  C5  UNL     1       2.715  59.970  80.547  0.00  0.00    +0.000 C 
ATOM      7  C6  UNL     1       3.702  60.492  81.275  0.00  0.00    +0.000 C 
ATOM      8  C7  UNL     1       3.970  61.990  81.375  0.00  0.00    +0.000 C 
ATOM      9  C8  UNL     1       3.862  62.375  82.864  0.00  0.00    +0.000 C 
ATOM     10  C9  UNL     1       5.407  62.232  80.876  0.00  0.00    +0.000 C 
ENDROOT
TORSDOF 0
ENDMDL
MODEL 3
REMARK VINA RESULT:      -3.5      1.558      3.087
REMARK  Name = .\Carvone.pdb
REMARK  3 active torsions:
REMARK  status: ('A' for Active; 'I' for Inactive)
REMARK    1  A    between atoms: C1_1  and  C2_2
REMARK    2  A    between atoms: C7_8  and  C8_9
REMARK    3  A    between atoms: C7_8  and  C9_10
REMARK                            x       y       z     vdW  Elec       q    Type
REMARK                         _______ _______ _______ _____ _____    ______ ____
ROOT
ATOM      1  C1  UNL     1       2.199  62.223  79.788  0.00  0.00    +0.000 C 
ATOM      2  C2  UNL     1       3.091  61.383  80.669  0.00  0.00    +0.000 C 
ATOM      3  C3  UNL     1       2.802  60.077  80.771  0.00  0.00    +0.000 C 
ATOM      4  C4  UNL     1       3.609  59.182  81.601  0.00  0.00    +0.000 C 
ATOM      5  O1  UNL     1       3.319  57.959  81.682  0.00  0.00    +0.000 OA
ATOM      6  C5  UNL     1       4.753  59.713  82.336  0.00  0.00    +0.000 C 
ATOM      7  C6  UNL     1       5.067  61.006  82.255  0.00  0.00    +0.000 C 
ATOM      8  C7  UNL     1       4.284  62.010  81.417  0.00  0.00    +0.000 C 
ATOM      9  C8  UNL     1       3.774  63.106  82.373  0.00  0.00    +0.000 C 
ATOM     10  C9  UNL     1       5.267  62.622  80.399  0.00  0.00    +0.000 C 
ENDROOT
TORSDOF 0
ENDMDL
MODEL 4
REMARK VINA RESULT:      -3.3      1.446      1.790
REMARK  Name = .\Carvone.pdb
REMARK  3 active torsions:
REMARK  status: ('A' for Active; 'I' for Inactive)
REMARK    1  A    between atoms: C1_1  and  C2_2
REMARK    2  A    between atoms: C7_8  and  C8_9
REMARK    3  A    between atoms: C7_8  and  C9_10
REMARK                            x       y       z     vdW  Elec       q    Type
REMARK                         _______ _______ _______ _____ _____    ______ ____
ROOT
ATOM      1  C1  UNL     1       3.804  58.962  81.780  0.00  0.00    +0.000 C 
ATOM      2  C2  UNL     1       3.633  60.441  81.530  0.00  0.00    +0.000 C 
ATOM      3  C3  UNL     1       2.773  60.807  80.566  0.00  0.00    +0.000 C 
ATOM      4  C4  UNL     1       2.540  62.217  80.251  0.00  0.00    +0.000 C 
ATOM      5  O1  UNL     1       1.729  62.537  79.343  0.00  0.00    +0.000 OA
ATOM      6  C5  UNL     1       3.253  63.252  80.995  0.00  0.00    +0.000 C 
ATOM      7  C6  UNL     1       4.113  62.921  81.958  0.00  0.00    +0.000 C 
ATOM      8  C7  UNL     1       4.418  61.481  82.354  0.00  0.00    +0.000 C 
ATOM      9  C8  UNL     1       5.930  61.261  82.153  0.00  0.00    +0.000 C 
ATOM     10  C9  UNL     1       4.063  61.331  83.846  0.00  0.00    +0.000 C 
ENDROOT
TORSDOF 0
ENDMDL
MODEL 5
REMARK VINA RESULT:      -3.3      1.862      2.772
REMARK  Name = .\Carvone.pdb
REMARK  3 active torsions:
REMARK  status: ('A' for Active; 'I' for Inactive)
REMARK    1  A    between atoms: C1_1  and  C2_2
REMARK    2  A    between atoms: C7_8  and  C8_9
REMARK    3  A    between atoms: C7_8  and  C9_10
REMARK                            x       y       z     vdW  Elec       q    Type
REMARK                         _______ _______ _______ _____ _____    ______ ____
ROOT
ATOM      1  C1  UNL     1       5.008  63.853  83.486  0.00  0.00    +0.000 C 
ATOM      2  C2  UNL     1       4.354  62.991  82.435  0.00  0.00    +0.000 C 
ATOM      3  C3  UNL     1       4.217  61.683  82.708  0.00  0.00    +0.000 C 
ATOM      4  C4  UNL     1       3.595  60.768  81.750  0.00  0.00    +0.000 C 
ATOM      5  O1  UNL     1       3.478  59.545  82.028  0.00  0.00    +0.000 OA
ATOM      6  C5  UNL     1       3.111  61.278  80.471  0.00  0.00    +0.000 C 
ATOM      7  C6  UNL     1       3.232  62.571  80.170  0.00  0.00    +0.000 C 
ATOM      8  C7  UNL     1       3.865  63.596  81.104  0.00  0.00    +0.000 C 
ATOM      9  C8  UNL     1       5.057  64.223  80.355  0.00  0.00    +0.000 C 
ATOM     10  C9  UNL     1       2.802  64.675  81.389  0.00  0.00    +0.000 C 
ENDROOT
TORSDOF 0
ENDMDL
MODEL 6
REMARK VINA RESULT:      -3.2      2.237      3.212
REMARK  Name = .\Carvone.pdb
REMARK  3 active torsions:
REMARK  status: ('A' for Active; 'I' for Inactive)
REMARK    1  A    between atoms: C1_1  and  C2_2
REMARK    2  A    between atoms: C7_8  and  C8_9
REMARK    3  A    between atoms: C7_8  and  C9_10
REMARK                            x       y       z     vdW  Elec       q    Type
REMARK                         _______ _______ _______ _____ _____    ______ ____
ROOT
ATOM      1  C1  UNL     1       3.214  60.186  80.967  0.00  0.00    +0.000 C 
ATOM      2  C2  UNL     1       3.692  61.541  81.429  0.00  0.00    +0.000 C 
ATOM      3  C3  UNL     1       3.302  62.609  80.714  0.00  0.00    +0.000 C 
ATOM      4  C4  UNL     1       3.715  63.963  81.084  0.00  0.00    +0.000 C 
ATOM      5  O1  UNL     1       3.337  64.950  80.398  0.00  0.00    +0.000 OA
ATOM      6  C5  UNL     1       4.567  64.166  82.252  0.00  0.00    +0.000 C 
ATOM      7  C6  UNL     1       4.970  63.127  82.983  0.00  0.00    +0.000 C 
ATOM      8  C7  UNL     1       4.591  61.683  82.673  0.00  0.00    +0.000 C 
ATOM      9  C8  UNL     1       5.901  60.902  82.454  0.00  0.00    +0.000 C 
ATOM     10  C9  UNL     1       3.853  61.128  83.907  0.00  0.00    +0.000 C 
ENDROOT
TORSDOF 0
ENDMDL
MODEL 7
REMARK VINA RESULT:      -3.2      2.734      4.471
REMARK  Name = .\Carvone.pdb
REMARK  3 active torsions:
REMARK  status: ('A' for Active; 'I' for Inactive)
REMARK    1  A    between atoms: C1_1  and  C2_2
REMARK    2  A    between atoms: C7_8  and  C8_9
REMARK    3  A    between atoms: C7_8  and  C9_10
REMARK                            x       y       z     vdW  Elec       q    Type
REMARK                         _______ _______ _______ _____ _____    ______ ____
ROOT
ATOM      1  C1  UNL     1       4.264  58.933  82.161  0.00  0.00    +0.000 C 
ATOM      2  C2  UNL     1       3.337  58.378  81.107  0.00  0.00    +0.000 C 
ATOM      3  C3  UNL     1       2.693  59.261  80.327  0.00  0.00    +0.000 C 
ATOM      4  C4  UNL     1       1.774  58.818  79.277  0.00  0.00    +0.000 C 
ATOM      5  O1  UNL     1       1.181  59.664  78.557  0.00  0.00    +0.000 OA
ATOM      6  C5  UNL     1       1.547  57.391  79.070  0.00  0.00    +0.000 C 
ATOM      7  C6  UNL     1       2.171  56.490  79.828  0.00  0.00    +0.000 C 
ATOM      8  C7  UNL     1       3.144  56.858  80.942  0.00  0.00    +0.000 C 
ATOM      9  C8  UNL     1       2.587  56.264  82.251  0.00  0.00    +0.000 C 
ATOM     10  C9  UNL     1       4.497  56.201  80.606  0.00  0.00    +0.000 C 
ENDROOT
TORSDOF 0
ENDMDL
MODEL 8
REMARK VINA RESULT:      -3.2      3.295      4.764
REMARK  Name = .\Carvone.pdb
REMARK  3 active torsions:
REMARK  status: ('A' for Active; 'I' for Inactive)
REMARK    1  A    between atoms: C1_1  and  C2_2
REMARK    2  A    between atoms: C7_8  and  C8_9
REMARK    3  A    between atoms: C7_8  and  C9_10
REMARK                            x       y       z     vdW  Elec       q    Type
REMARK                         _______ _______ _______ _____ _____    ______ ____
ROOT
ATOM      1  C1  UNL     1       1.690  54.900  79.584  0.00  0.00    +0.000 C 
ATOM      2  C2  UNL     1       2.084  56.332  79.854  0.00  0.00    +0.000 C 
ATOM      3  C3  UNL     1       1.491  57.284  79.116  0.00  0.00    +0.000 C 
ATOM      4  C4  UNL     1       1.807  58.700  79.306  0.00  0.00    +0.000 C 
ATOM      5  O1  UNL     1       1.238  59.576  78.602  0.00  0.00    +0.000 OA
ATOM      6  C5  UNL     1       2.786  59.094  80.315  0.00  0.00    +0.000 C 
ATOM      7  C6  UNL     1       3.392  58.173  81.064  0.00  0.00    +0.000 C 
ATOM      8  C7  UNL     1       3.126  56.677  80.937  0.00  0.00    +0.000 C 
ATOM      9  C8  UNL     1       4.468  56.001  80.594  0.00  0.00    +0.000 C 
ATOM     10  C9  UNL     1       2.628  56.182  82.308  0.00  0.00    +0.000 C 
ENDROOT
TORSDOF 0
ENDMDL
MODEL 9
REMARK VINA RESULT:      -2.9      2.696      4.678
REMARK  Name = .\Carvone.pdb
REMARK  3 active torsions:
REMARK  status: ('A' for Active; 'I' for Inactive)
REMARK    1  A    between atoms: C1_1  and  C2_2
REMARK    2  A    between atoms: C7_8  and  C8_9
REMARK    3  A    between atoms: C7_8  and  C9_10
REMARK                            x       y       z     vdW  Elec       q    Type
REMARK                         _______ _______ _______ _____ _____    ______ ____
ROOT
ATOM      1  C1  UNL     1       2.226  57.464  79.442  0.00  0.00    +0.000 C 
ATOM      2  C2  UNL     1       3.005  58.052  80.594  0.00  0.00    +0.000 C 
ATOM      3  C3  UNL     1       3.043  59.391  80.691  0.00  0.00    +0.000 C 
ATOM      4  C4  UNL     1       3.772  60.053  81.774  0.00  0.00    +0.000 C 
ATOM      5  O1  UNL     1       3.794  61.310  81.846  0.00  0.00    +0.000 OA
ATOM      6  C5  UNL     1       4.475  59.250  82.771  0.00  0.00    +0.000 C 
ATOM      7  C6  UNL     1       4.455  57.919  82.701  0.00  0.00    +0.000 C 
ATOM      8  C7  UNL     1       3.723  57.144  81.611  0.00  0.00    +0.000 C 
ATOM      9  C8  UNL     1       4.771  56.281  80.881  0.00  0.00    +0.000 C 
ATOM     10  C9  UNL     1       2.692  56.235  82.308  0.00  0.00    +0.000 C 
ENDROOT
TORSDOF 0
ENDMDL
