MODEL 1
REMARK VINA RESULT:      -2.7      0.000      0.000
REMARK  Name = .\Carvacrol.pdb
REMARK  5 active torsions:
REMARK  status: ('A' for Active; 'I' for Inactive)
REMARK    1  A    between atoms: C1_1  and  C2_2
REMARK    2  A    between atoms: C2_2  and  C3_3
REMARK    3  A    between atoms: C2_2  and  C4_4
REMARK    4  A    between atoms: C6_6  and  O1_11
REMARK    5  A    between atoms: C7_7  and  C10_10
REMARK                            x       y       z     vdW  Elec       q    Type
REMARK                         _______ _______ _______ _____ _____    ______ ____
ROOT
ATOM      1  C4  UNL     1      -1.294  99.031  81.630  0.00  0.00    +0.000 A 
ATOM      2  C5  UNL     1      -2.343  98.223  82.100  0.00  0.00    +0.000 A 
ATOM      3  C6  UNL     1      -2.763  97.100  81.372  0.00  0.00    +0.000 A 
ATOM      4  C7  UNL     1      -2.133  96.774  80.159  0.00  0.00    +0.000 A 
ATOM      5  C8  UNL     1      -1.084  97.579  79.688  0.00  0.00    +0.000 A 
ATOM      6  C9  UNL     1      -0.668  98.697  80.416  0.00  0.00    +0.000 A 
ATOM      7  C10 UNL     1      -2.577  95.573  79.374  0.00  0.00    +0.000 C 
ENDROOT
BRANCH   1   9
ATOM      8  C1  UNL     1       0.258 101.010  81.703  0.00  0.00    +0.000 C 
ATOM      9  C2  UNL     1      -0.852 100.242  82.431  0.00  0.00    +0.000 C 
ATOM     10  C3  UNL     1      -2.040 101.158  82.749  0.00  0.00    +0.000 C 
ENDBRANCH   1   9
BRANCH   3  11
ATOM     11  O1  UNL     1      -3.807  96.308  81.851  0.00  0.00    +0.000 OA
ATOM     12  H14 UNL     1      -4.777  96.555  81.692  0.00  0.00    +0.000 HD
ENDBRANCH   3  11
TORSDOF 2
ENDMDL
MODEL 2
REMARK VINA RESULT:      -2.5      1.054      1.293
REMARK  Name = .\Carvacrol.pdb
REMARK  5 active torsions:
REMARK  status: ('A' for Active; 'I' for Inactive)
REMARK    1  A    between atoms: C1_1  and  C2_2
REMARK    2  A    between atoms: C2_2  and  C3_3
REMARK    3  A    between atoms: C2_2  and  C4_4
REMARK    4  A    between atoms: C6_6  and  O1_11
REMARK    5  A    between atoms: C7_7  and  C10_10
REMARK                            x       y       z     vdW  Elec       q    Type
REMARK                         _______ _______ _______ _____ _____    ______ ____
ROOT
ATOM      1  C4  UNL     1      -2.095  99.806  81.847  0.00  0.00    +0.000 A 
ATOM      2  C5  UNL     1      -2.806  98.613  82.060  0.00  0.00    +0.000 A 
ATOM      3  C6  UNL     1      -2.569  97.485  81.261  0.00  0.00    +0.000 A 
ATOM      4  C7  UNL     1      -1.611  97.541  80.234  0.00  0.00    +0.000 A 
ATOM      5  C8  UNL     1      -0.899  98.732  80.019  0.00  0.00    +0.000 A 
ATOM      6  C9  UNL     1      -1.139  99.853  80.817  0.00  0.00    +0.000 A 
ATOM      7  C10 UNL     1      -1.351  96.338  79.374  0.00  0.00    +0.000 C 
ENDROOT
BRANCH   1   9
ATOM      8  C1  UNL     1      -1.087 101.836  82.939  0.00  0.00    +0.000 C 
ATOM      9  C2  UNL     1      -2.365 101.017  82.721  0.00  0.00    +0.000 C 
ATOM     10  C3  UNL     1      -3.484 101.885  82.134  0.00  0.00    +0.000 C 
ENDBRANCH   1   9
BRANCH   3  11
ATOM     11  O1  UNL     1      -3.283  96.308  81.484  0.00  0.00    +0.000 OA
ATOM     12  H14 UNL     1      -4.258  96.322  81.762  0.00  0.00    +0.000 HD
ENDBRANCH   3  11
TORSDOF 2
ENDMDL
MODEL 3
REMARK VINA RESULT:      -2.3      2.136      2.560
REMARK  Name = .\Carvacrol.pdb
REMARK  5 active torsions:
REMARK  status: ('A' for Active; 'I' for Inactive)
REMARK    1  A    between atoms: C1_1  and  C2_2
REMARK    2  A    between atoms: C2_2  and  C3_3
REMARK    3  A    between atoms: C2_2  and  C4_4
REMARK    4  A    between atoms: C6_6  and  O1_11
REMARK    5  A    between atoms: C7_7  and  C10_10
REMARK                            x       y       z     vdW  Elec       q    Type
REMARK                         _______ _______ _______ _____ _____    ______ ____
ROOT
ATOM      1  C4  UNL     1      -1.474 100.563  82.097  0.00  0.00    +0.000 A 
ATOM      2  C5  UNL     1      -1.074  99.448  82.853  0.00  0.00    +0.000 A 
ATOM      3  C6  UNL     1      -1.833  98.268  82.847  0.00  0.00    +0.000 A 
ATOM      4  C7  UNL     1      -3.009  98.194  82.080  0.00  0.00    +0.000 A 
ATOM      5  C8  UNL     1      -3.411  99.306  81.325  0.00  0.00    +0.000 A 
ATOM      6  C9  UNL     1      -2.651 100.479  81.332  0.00  0.00    +0.000 A 
ATOM      7  C10 UNL     1      -3.828  96.935  82.070  0.00  0.00    +0.000 C 
ENDROOT
BRANCH   1   9
ATOM      8  C1  UNL     1       0.195 101.925  83.397  0.00  0.00    +0.000 C 
ATOM      9  C2  UNL     1      -0.640 101.830  82.114  0.00  0.00    +0.000 C 
ATOM     10  C3  UNL     1       0.249 101.925  80.868  0.00  0.00    +0.000 C 
ENDBRANCH   1   9
BRANCH   3  11
ATOM     11  O1  UNL     1      -1.423  97.170  83.604  0.00  0.00    +0.000 OA
ATOM     12  H14 UNL     1      -0.450  97.027  83.848  0.00  0.00    +0.000 HD
ENDBRANCH   3  11
TORSDOF 2
ENDMDL
MODEL 4
REMARK VINA RESULT:      -2.3      1.452      2.392
REMARK  Name = .\Carvacrol.pdb
REMARK  5 active torsions:
REMARK  status: ('A' for Active; 'I' for Inactive)
REMARK    1  A    between atoms: C1_1  and  C2_2
REMARK    2  A    between atoms: C2_2  and  C3_3
REMARK    3  A    between atoms: C2_2  and  C4_4
REMARK    4  A    between atoms: C6_6  and  O1_11
REMARK    5  A    between atoms: C7_7  and  C10_10
REMARK                            x       y       z     vdW  Elec       q    Type
REMARK                         _______ _______ _______ _____ _____    ______ ____
ROOT
ATOM      1  C4  UNL     1      -0.814  99.822  81.144  0.00  0.00    +0.000 A 
ATOM      2  C5  UNL     1      -0.832  98.677  80.328  0.00  0.00    +0.000 A 
ATOM      3  C6  UNL     1      -1.709  97.617  80.600  0.00  0.00    +0.000 A 
ATOM      4  C7  UNL     1      -2.582  97.693  81.700  0.00  0.00    +0.000 A 
ATOM      5  C8  UNL     1      -2.566  98.834  82.516  0.00  0.00    +0.000 A 
ATOM      6  C9  UNL     1      -1.691  99.888  82.241  0.00  0.00    +0.000 A 
ATOM      7  C10 UNL     1      -3.524  96.561  81.998  0.00  0.00    +0.000 C 
ENDROOT
BRANCH   1   9
ATOM      8  C1  UNL     1      -0.280 101.703  79.561  0.00  0.00    +0.000 C 
ATOM      9  C2  UNL     1       0.141 100.959  80.835  0.00  0.00    +0.000 C 
ATOM     10  C3  UNL     1       0.258 101.921  82.023  0.00  0.00    +0.000 C 
ENDBRANCH   1   9
BRANCH   3  11
ATOM     11  O1  UNL     1      -1.715  96.488  79.782  0.00  0.00    +0.000 OA
ATOM     12  H14 UNL     1      -1.178  95.660  80.015  0.00  0.00    +0.000 HD
ENDBRANCH   3  11
TORSDOF 2
ENDMDL
MODEL 5
REMARK VINA RESULT:      -1.9      2.687      3.494
REMARK  Name = .\Carvacrol.pdb
REMARK  5 active torsions:
REMARK  status: ('A' for Active; 'I' for Inactive)
REMARK    1  A    between atoms: C1_1  and  C2_2
REMARK    2  A    between atoms: C2_2  and  C3_3
REMARK    3  A    between atoms: C2_2  and  C4_4
REMARK    4  A    between atoms: C6_6  and  O1_11
REMARK    5  A    between atoms: C7_7  and  C10_10
REMARK                            x       y       z     vdW  Elec       q    Type
REMARK                         _______ _______ _______ _____ _____    ______ ____
ROOT
ATOM      1  C4  UNL     1      -1.359 100.470  81.667  0.00  0.00    +0.000 A 
ATOM      2  C5  UNL     1      -2.531  99.746  81.946  0.00  0.00    +0.000 A 
ATOM      3  C6  UNL     1      -3.749 100.094  81.344  0.00  0.00    +0.000 A 
ATOM      4  C7  UNL     1      -3.806 101.178  80.451  0.00  0.00    +0.000 A 
ATOM      5  C8  UNL     1      -2.638 101.903  80.171  0.00  0.00    +0.000 A 
ATOM      6  C9  UNL     1      -1.426 101.553  80.772  0.00  0.00    +0.000 A 
ATOM      7  C10 UNL     1      -5.107 101.557  79.803  0.00  0.00    +0.000 C 
ENDROOT
BRANCH   1   9
ATOM      8  C1  UNL     1       0.258 100.990  83.522  0.00  0.00    +0.000 C 
ATOM      9  C2  UNL     1      -0.050 100.080  82.327  0.00  0.00    +0.000 C 
ATOM     10  C3  UNL     1      -0.058  98.604  82.743  0.00  0.00    +0.000 C 
ENDBRANCH   1   9
BRANCH   3  11
ATOM     11  O1  UNL     1      -4.903  99.365  81.632  0.00  0.00    +0.000 OA
ATOM     12  H14 UNL     1      -5.186  98.573  81.067  0.00  0.00    +0.000 HD
ENDBRANCH   3  11
TORSDOF 2
ENDMDL
MODEL 6
REMARK VINA RESULT:      -1.9      2.053      4.480
REMARK  Name = .\Carvacrol.pdb
REMARK  5 active torsions:
REMARK  status: ('A' for Active; 'I' for Inactive)
REMARK    1  A    between atoms: C1_1  and  C2_2
REMARK    2  A    between atoms: C2_2  and  C3_3
REMARK    3  A    between atoms: C2_2  and  C4_4
REMARK    4  A    between atoms: C6_6  and  O1_11
REMARK    5  A    between atoms: C7_7  and  C10_10
REMARK                            x       y       z     vdW  Elec       q    Type
REMARK                         _______ _______ _______ _____ _____    ______ ____
ROOT
ATOM      1  C4  UNL     1      -1.954  98.637  81.624  0.00  0.00    +0.000 A 
ATOM      2  C5  UNL     1      -2.622  99.769  82.121  0.00  0.00    +0.000 A 
ATOM      3  C6  UNL     1      -1.909 100.808  82.737  0.00  0.00    +0.000 A 
ATOM      4  C7  UNL     1      -0.511 100.723  82.862  0.00  0.00    +0.000 A 
ATOM      5  C8  UNL     1       0.158  99.593  82.366  0.00  0.00    +0.000 A 
ATOM      6  C9  UNL     1      -0.556  98.560  81.753  0.00  0.00    +0.000 A 
ATOM      7  C10 UNL     1       0.258 101.832  83.521  0.00  0.00    +0.000 C 
ENDROOT
BRANCH   1   9
ATOM      8  C1  UNL     1      -1.835  96.660  80.072  0.00  0.00    +0.000 C 
ATOM      9  C2  UNL     1      -2.740  97.522  80.960  0.00  0.00    +0.000 C 
ATOM     10  C3  UNL     1      -3.472  96.665  82.000  0.00  0.00    +0.000 C 
ENDBRANCH   1   9
BRANCH   3  11
ATOM     11  O1  UNL     1      -2.586 101.925  83.226  0.00  0.00    +0.000 OA
ATOM     12  H14 UNL     1      -3.023 101.923  84.141  0.00  0.00    +0.000 HD
ENDBRANCH   3  11
TORSDOF 2
ENDMDL
MODEL 7
REMARK VINA RESULT:      -1.8      0.607      1.224
REMARK  Name = .\Carvacrol.pdb
REMARK  5 active torsions:
REMARK  status: ('A' for Active; 'I' for Inactive)
REMARK    1  A    between atoms: C1_1  and  C2_2
REMARK    2  A    between atoms: C2_2  and  C3_3
REMARK    3  A    between atoms: C2_2  and  C4_4
REMARK    4  A    between atoms: C6_6  and  O1_11
REMARK    5  A    between atoms: C7_7  and  C10_10
REMARK                            x       y       z     vdW  Elec       q    Type
REMARK                         _______ _______ _______ _____ _____    ______ ____
ROOT
ATOM      1  C4  UNL     1      -1.704  99.579  81.319  0.00  0.00    +0.000 A 
ATOM      2  C5  UNL     1      -2.599  98.680  81.923  0.00  0.00    +0.000 A 
ATOM      3  C6  UNL     1      -2.816  97.407  81.374  0.00  0.00    +0.000 A 
ATOM      4  C7  UNL     1      -2.134  97.021  80.207  0.00  0.00    +0.000 A 
ATOM      5  C8  UNL     1      -1.240  97.918  79.602  0.00  0.00    +0.000 A 
ATOM      6  C9  UNL     1      -1.026  99.184  80.152  0.00  0.00    +0.000 A 
ATOM      7  C10 UNL     1      -2.361  95.660  79.613  0.00  0.00    +0.000 C 
ENDROOT
BRANCH   1   9
ATOM      8  C1  UNL     1      -2.552 101.271  82.977  0.00  0.00    +0.000 C 
ATOM      9  C2  UNL     1      -1.482 100.952  81.927  0.00  0.00    +0.000 C 
ATOM     10  C3  UNL     1      -0.073 101.073  82.519  0.00  0.00    +0.000 C 
ENDBRANCH   1   9
BRANCH   3  11
ATOM     11  O1  UNL     1      -3.708  96.526  81.984  0.00  0.00    +0.000 OA
ATOM     12  H14 UNL     1      -3.391  95.808  82.627  0.00  0.00    +0.000 HD
ENDBRANCH   3  11
TORSDOF 2
ENDMDL
MODEL 8
REMARK VINA RESULT:      -1.8      2.195      3.288
REMARK  Name = .\Carvacrol.pdb
REMARK  5 active torsions:
REMARK  status: ('A' for Active; 'I' for Inactive)
REMARK    1  A    between atoms: C1_1  and  C2_2
REMARK    2  A    between atoms: C2_2  and  C3_3
REMARK    3  A    between atoms: C2_2  and  C4_4
REMARK    4  A    between atoms: C6_6  and  O1_11
REMARK    5  A    between atoms: C7_7  and  C10_10
REMARK                            x       y       z     vdW  Elec       q    Type
REMARK                         _______ _______ _______ _____ _____    ______ ____
ROOT
ATOM      1  C4  UNL     1      -2.550 100.542  81.435  0.00  0.00    +0.000 A 
ATOM      2  C5  UNL     1      -2.925  99.241  81.811  0.00  0.00    +0.000 A 
ATOM      3  C6  UNL     1      -2.018  98.395  82.466  0.00  0.00    +0.000 A 
ATOM      4  C7  UNL     1      -0.718  98.847  82.753  0.00  0.00    +0.000 A 
ATOM      5  C8  UNL     1      -0.342 100.146  82.378  0.00  0.00    +0.000 A 
ATOM      6  C9  UNL     1      -1.248 100.985  81.726  0.00  0.00    +0.000 A 
ATOM      7  C10 UNL     1       0.258  97.947  83.454  0.00  0.00    +0.000 C 
ENDROOT
BRANCH   1   9
ATOM      8  C1  UNL     1      -2.992 101.923  79.379  0.00  0.00    +0.000 C 
ATOM      9  C2  UNL     1      -3.544 101.444  80.727  0.00  0.00    +0.000 C 
ATOM     10  C3  UNL     1      -4.898 100.745  80.553  0.00  0.00    +0.000 C 
ENDBRANCH   1   9
BRANCH   3  11
ATOM     11  O1  UNL     1      -2.405  97.106  82.833  0.00  0.00    +0.000 OA
ATOM     12  H14 UNL     1      -2.270  96.314  82.214  0.00  0.00    +0.000 HD
ENDBRANCH   3  11
TORSDOF 2
ENDMDL
MODEL 9
REMARK VINA RESULT:      -1.0      2.636      3.719
REMARK  Name = .\Carvacrol.pdb
REMARK  5 active torsions:
REMARK  status: ('A' for Active; 'I' for Inactive)
REMARK    1  A    between atoms: C1_1  and  C2_2
REMARK    2  A    between atoms: C2_2  and  C3_3
REMARK    3  A    between atoms: C2_2  and  C4_4
REMARK    4  A    between atoms: C6_6  and  O1_11
REMARK    5  A    between atoms: C7_7  and  C10_10
REMARK                            x       y       z     vdW  Elec       q    Type
REMARK                         _______ _______ _______ _____ _____    ______ ____
ROOT
ATOM      1  C4  UNL     1      -2.768  99.798  81.198  0.00  0.00    +0.000 A 
ATOM      2  C5  UNL     1      -1.545 100.133  81.803  0.00  0.00    +0.000 A 
ATOM      3  C6  UNL     1      -0.956  99.280  82.748  0.00  0.00    +0.000 A 
ATOM      4  C7  UNL     1      -1.591  98.076  83.099  0.00  0.00    +0.000 A 
ATOM      5  C8  UNL     1      -2.813  97.740  82.496  0.00  0.00    +0.000 A 
ATOM      6  C9  UNL     1      -3.396  98.591  81.555  0.00  0.00    +0.000 A 
ATOM      7  C10 UNL     1      -0.966  97.158  84.110  0.00  0.00    +0.000 C 
ENDROOT
BRANCH   1   9
ATOM      8  C1  UNL     1      -4.778 101.202  80.632  0.00  0.00    +0.000 C 
ATOM      9  C2  UNL     1      -3.391 100.732  80.177  0.00  0.00    +0.000 C 
ATOM     10  C3  UNL     1      -2.472 101.925  79.885  0.00  0.00    +0.000 C 
ENDBRANCH   1   9
BRANCH   3  11
ATOM     11  O1  UNL     1       0.258  99.627  83.341  0.00  0.00    +0.000 OA
ATOM     12  H14 UNL     1       1.061  99.904  82.786  0.00  0.00    +0.000 HD
ENDBRANCH   3  11
TORSDOF 2
ENDMDL
