MODEL 1
REMARK VINA RESULT:      -4.0      0.000      0.000
REMARK  Name = .\Carvacrol.pdb
REMARK  5 active torsions:
REMARK  status: ('A' for Active; 'I' for Inactive)
REMARK    1  A    between atoms: C1_1  and  C2_2
REMARK    2  A    between atoms: C2_2  and  C3_3
REMARK    3  A    between atoms: C2_2  and  C4_4
REMARK    4  A    between atoms: C6_6  and  O1_11
REMARK    5  A    between atoms: C7_7  and  C10_10
REMARK                            x       y       z     vdW  Elec       q    Type
REMARK                         _______ _______ _______ _____ _____    ______ ____
ROOT
ATOM      1  C4  UNL     1       8.514  79.363  59.973  0.00  0.00    +0.000 A 
ATOM      2  C5  UNL     1       9.480  80.117  60.661  0.00  0.00    +0.000 A 
ATOM      3  C6  UNL     1      10.678  79.527  61.088  0.00  0.00    +0.000 A 
ATOM      4  C7  UNL     1      10.922  78.167  60.830  0.00  0.00    +0.000 A 
ATOM      5  C8  UNL     1       9.959  77.412  60.143  0.00  0.00    +0.000 A 
ATOM      6  C9  UNL     1       8.767  78.004  59.718  0.00  0.00    +0.000 A 
ATOM      7  C10 UNL     1      12.203  77.528  61.284  0.00  0.00    +0.000 C 
ENDROOT
BRANCH   1   9
ATOM      8  C1  UNL     1       7.330  81.546  59.569  0.00  0.00    +0.000 C 
ATOM      9  C2  UNL     1       7.223  80.018  59.518  0.00  0.00    +0.000 C 
ATOM     10  C3  UNL     1       6.823  79.538  58.117  0.00  0.00    +0.000 C 
ENDBRANCH   1   9
BRANCH   3  11
ATOM     11  O1  UNL     1      11.627  80.289  61.771  0.00  0.00    +0.000 OA
ATOM     12  H14 UNL     1      12.005  79.991  62.663  0.00  0.00    +0.000 HD
ENDBRANCH   3  11
TORSDOF 2
ENDMDL
MODEL 2
REMARK VINA RESULT:      -3.9      3.448      4.434
REMARK  Name = .\Carvacrol.pdb
REMARK  5 active torsions:
REMARK  status: ('A' for Active; 'I' for Inactive)
REMARK    1  A    between atoms: C1_1  and  C2_2
REMARK    2  A    between atoms: C2_2  and  C3_3
REMARK    3  A    between atoms: C2_2  and  C4_4
REMARK    4  A    between atoms: C6_6  and  O1_11
REMARK    5  A    between atoms: C7_7  and  C10_10
REMARK                            x       y       z     vdW  Elec       q    Type
REMARK                         _______ _______ _______ _____ _____    ______ ____
ROOT
ATOM      1  C4  UNL     1       7.553  82.427  59.209  0.00  0.00    +0.000 A 
ATOM      2  C5  UNL     1       7.018  81.291  59.839  0.00  0.00    +0.000 A 
ATOM      3  C6  UNL     1       7.155  80.020  59.261  0.00  0.00    +0.000 A 
ATOM      4  C7  UNL     1       7.833  79.875  58.038  0.00  0.00    +0.000 A 
ATOM      5  C8  UNL     1       8.368  81.009  57.407  0.00  0.00    +0.000 A 
ATOM      6  C9  UNL     1       8.230  82.272  57.986  0.00  0.00    +0.000 A 
ATOM      7  C10 UNL     1       7.984  78.517  57.412  0.00  0.00    +0.000 C 
ENDROOT
BRANCH   1   9
ATOM      8  C1  UNL     1       7.235  84.887  58.785  0.00  0.00    +0.000 C 
ATOM      9  C2  UNL     1       7.395  83.794  59.848  0.00  0.00    +0.000 C 
ATOM     10  C3  UNL     1       6.224  83.811  60.838  0.00  0.00    +0.000 C 
ENDBRANCH   1   9
BRANCH   3  11
ATOM     11  O1  UNL     1       6.618  78.901  59.898  0.00  0.00    +0.000 OA
ATOM     12  H14 UNL     1       5.911  78.988  60.618  0.00  0.00    +0.000 HD
ENDBRANCH   3  11
TORSDOF 2
ENDMDL
MODEL 3
REMARK VINA RESULT:      -3.9      2.299      4.629
REMARK  Name = .\Carvacrol.pdb
REMARK  5 active torsions:
REMARK  status: ('A' for Active; 'I' for Inactive)
REMARK    1  A    between atoms: C1_1  and  C2_2
REMARK    2  A    between atoms: C2_2  and  C3_3
REMARK    3  A    between atoms: C2_2  and  C4_4
REMARK    4  A    between atoms: C6_6  and  O1_11
REMARK    5  A    between atoms: C7_7  and  C10_10
REMARK                            x       y       z     vdW  Elec       q    Type
REMARK                         _______ _______ _______ _____ _____    ______ ____
ROOT
ATOM      1  C4  UNL     1       9.150  79.497  60.266  0.00  0.00    +0.000 A 
ATOM      2  C5  UNL     1       8.619  78.276  59.817  0.00  0.00    +0.000 A 
ATOM      3  C6  UNL     1       7.699  78.241  58.759  0.00  0.00    +0.000 A 
ATOM      4  C7  UNL     1       7.298  79.437  58.137  0.00  0.00    +0.000 A 
ATOM      5  C8  UNL     1       7.827  80.658  58.584  0.00  0.00    +0.000 A 
ATOM      6  C9  UNL     1       8.744  80.688  59.638  0.00  0.00    +0.000 A 
ATOM      7  C10 UNL     1       6.313  79.407  57.004  0.00  0.00    +0.000 C 
ENDROOT
BRANCH   1   9
ATOM      8  C1  UNL     1      10.165  78.172  62.148  0.00  0.00    +0.000 C 
ATOM      9  C2  UNL     1      10.144  79.517  61.412  0.00  0.00    +0.000 C 
ATOM     10  C3  UNL     1      11.546  79.900  60.922  0.00  0.00    +0.000 C 
ENDBRANCH   1   9
BRANCH   3  11
ATOM     11  O1  UNL     1       7.180  77.021  58.324  0.00  0.00    +0.000 OA
ATOM     12  H14 UNL     1       7.169  76.768  57.343  0.00  0.00    +0.000 HD
ENDBRANCH   3  11
TORSDOF 2
ENDMDL
MODEL 4
REMARK VINA RESULT:      -3.9      0.858      1.408
REMARK  Name = .\Carvacrol.pdb
REMARK  5 active torsions:
REMARK  status: ('A' for Active; 'I' for Inactive)
REMARK    1  A    between atoms: C1_1  and  C2_2
REMARK    2  A    between atoms: C2_2  and  C3_3
REMARK    3  A    between atoms: C2_2  and  C4_4
REMARK    4  A    between atoms: C6_6  and  O1_11
REMARK    5  A    between atoms: C7_7  and  C10_10
REMARK                            x       y       z     vdW  Elec       q    Type
REMARK                         _______ _______ _______ _____ _____    ______ ____
ROOT
ATOM      1  C4  UNL     1       9.067  78.919  59.759  0.00  0.00    +0.000 A 
ATOM      2  C5  UNL     1       9.926  79.867  60.341  0.00  0.00    +0.000 A 
ATOM      3  C6  UNL     1      10.941  79.468  61.223  0.00  0.00    +0.000 A 
ATOM      4  C7  UNL     1      11.106  78.108  61.535  0.00  0.00    +0.000 A 
ATOM      5  C8  UNL     1      10.249  77.159  60.955  0.00  0.00    +0.000 A 
ATOM      6  C9  UNL     1       9.240  77.560  60.076  0.00  0.00    +0.000 A 
ATOM      7  C10 UNL     1      12.190  77.673  62.479  0.00  0.00    +0.000 C 
ENDROOT
BRANCH   1   9
ATOM      8  C1  UNL     1       7.278  78.165  58.159  0.00  0.00    +0.000 C 
ATOM      9  C2  UNL     1       7.975  79.368  58.806  0.00  0.00    +0.000 C 
ATOM     10  C3  UNL     1       6.964  80.278  59.513  0.00  0.00    +0.000 C 
ENDBRANCH   1   9
BRANCH   3  11
ATOM     11  O1  UNL     1      11.785  80.422  61.793  0.00  0.00    +0.000 OA
ATOM     12  H14 UNL     1      11.721  81.403  61.547  0.00  0.00    +0.000 HD
ENDBRANCH   3  11
TORSDOF 2
ENDMDL
MODEL 5
REMARK VINA RESULT:      -3.8      1.940      4.684
REMARK  Name = .\Carvacrol.pdb
REMARK  5 active torsions:
REMARK  status: ('A' for Active; 'I' for Inactive)
REMARK    1  A    between atoms: C1_1  and  C2_2
REMARK    2  A    between atoms: C2_2  and  C3_3
REMARK    3  A    between atoms: C2_2  and  C4_4
REMARK    4  A    between atoms: C6_6  and  O1_11
REMARK    5  A    between atoms: C7_7  and  C10_10
REMARK                            x       y       z     vdW  Elec       q    Type
REMARK                         _______ _______ _______ _____ _____    ______ ____
ROOT
ATOM      1  C4  UNL     1      10.442  78.245  60.733  0.00  0.00    +0.000 A 
ATOM      2  C5  UNL     1       9.445  77.606  59.977  0.00  0.00    +0.000 A 
ATOM      3  C6  UNL     1       8.297  78.303  59.570  0.00  0.00    +0.000 A 
ATOM      4  C7  UNL     1       8.136  79.655  59.919  0.00  0.00    +0.000 A 
ATOM      5  C8  UNL     1       9.130  80.295  60.675  0.00  0.00    +0.000 A 
ATOM      6  C9  UNL     1      10.272  79.598  61.078  0.00  0.00    +0.000 A 
ATOM      7  C10 UNL     1       6.910  80.407  59.488  0.00  0.00    +0.000 C 
ENDROOT
BRANCH   1   9
ATOM      8  C1  UNL     1      11.400  76.649  62.425  0.00  0.00    +0.000 C 
ATOM      9  C2  UNL     1      11.677  77.477  61.165  0.00  0.00    +0.000 C 
ATOM     10  C3  UNL     1      12.204  76.593  60.028  0.00  0.00    +0.000 C 
ENDBRANCH   1   9
BRANCH   3  11
ATOM     11  O1  UNL     1       7.316  77.654  58.820  0.00  0.00    +0.000 OA
ATOM     12  H14 UNL     1       6.341  77.665  59.098  0.00  0.00    +0.000 HD
ENDBRANCH   3  11
TORSDOF 2
ENDMDL
MODEL 6
REMARK VINA RESULT:      -3.8      2.010      4.272
REMARK  Name = .\Carvacrol.pdb
REMARK  5 active torsions:
REMARK  status: ('A' for Active; 'I' for Inactive)
REMARK    1  A    between atoms: C1_1  and  C2_2
REMARK    2  A    between atoms: C2_2  and  C3_3
REMARK    3  A    between atoms: C2_2  and  C4_4
REMARK    4  A    between atoms: C6_6  and  O1_11
REMARK    5  A    between atoms: C7_7  and  C10_10
REMARK                            x       y       z     vdW  Elec       q    Type
REMARK                         _______ _______ _______ _____ _____    ______ ____
ROOT
ATOM      1  C4  UNL     1       9.399  79.340  60.508  0.00  0.00    +0.000 A 
ATOM      2  C5  UNL     1       8.778  80.530  60.093  0.00  0.00    +0.000 A 
ATOM      3  C6  UNL     1       7.845  80.524  59.046  0.00  0.00    +0.000 A 
ATOM      4  C7  UNL     1       7.523  79.317  58.400  0.00  0.00    +0.000 A 
ATOM      5  C8  UNL     1       8.143  78.127  58.813  0.00  0.00    +0.000 A 
ATOM      6  C9  UNL     1       9.071  78.138  59.856  0.00  0.00    +0.000 A 
ATOM      7  C10 UNL     1       6.525  79.302  57.277  0.00  0.00    +0.000 C 
ENDROOT
BRANCH   1   9
ATOM      8  C1  UNL     1      10.302  78.100  62.502  0.00  0.00    +0.000 C 
ATOM      9  C2  UNL     1      10.407  79.365  61.643  0.00  0.00    +0.000 C 
ATOM     10  C3  UNL     1      11.833  79.557  61.113  0.00  0.00    +0.000 C 
ENDBRANCH   1   9
BRANCH   3  11
ATOM     11  O1  UNL     1       7.238  81.713  58.644  0.00  0.00    +0.000 OA
ATOM     12  H14 UNL     1       7.646  82.303  57.928  0.00  0.00    +0.000 HD
ENDBRANCH   3  11
TORSDOF 2
ENDMDL
MODEL 7
REMARK VINA RESULT:      -3.7      2.446      3.424
REMARK  Name = .\Carvacrol.pdb
REMARK  5 active torsions:
REMARK  status: ('A' for Active; 'I' for Inactive)
REMARK    1  A    between atoms: C1_1  and  C2_2
REMARK    2  A    between atoms: C2_2  and  C3_3
REMARK    3  A    between atoms: C2_2  and  C4_4
REMARK    4  A    between atoms: C6_6  and  O1_11
REMARK    5  A    between atoms: C7_7  and  C10_10
REMARK                            x       y       z     vdW  Elec       q    Type
REMARK                         _______ _______ _______ _____ _____    ______ ____
ROOT
ATOM      1  C4  UNL     1       7.757  81.128  59.222  0.00  0.00    +0.000 A 
ATOM      2  C5  UNL     1       6.921  80.035  58.938  0.00  0.00    +0.000 A 
ATOM      3  C6  UNL     1       7.379  78.720  59.111  0.00  0.00    +0.000 A 
ATOM      4  C7  UNL     1       8.686  78.486  59.572  0.00  0.00    +0.000 A 
ATOM      5  C8  UNL     1       9.523  79.577  59.856  0.00  0.00    +0.000 A 
ATOM      6  C9  UNL     1       9.063  80.885  59.683  0.00  0.00    +0.000 A 
ATOM      7  C10 UNL     1       9.183  77.081  59.759  0.00  0.00    +0.000 C 
ENDROOT
BRANCH   1   9
ATOM      8  C1  UNL     1       7.084  83.260  60.376  0.00  0.00    +0.000 C 
ATOM      9  C2  UNL     1       7.246  82.544  59.030  0.00  0.00    +0.000 C 
ATOM     10  C3  UNL     1       8.158  83.339  58.087  0.00  0.00    +0.000 C 
ENDBRANCH   1   9
BRANCH   3  11
ATOM     11  O1  UNL     1       6.538  77.645  58.824  0.00  0.00    +0.000 OA
ATOM     12  H14 UNL     1       6.482  76.836  59.433  0.00  0.00    +0.000 HD
ENDBRANCH   3  11
TORSDOF 2
ENDMDL
MODEL 8
REMARK VINA RESULT:      -3.6      3.065      5.765
REMARK  Name = .\Carvacrol.pdb
REMARK  5 active torsions:
REMARK  status: ('A' for Active; 'I' for Inactive)
REMARK    1  A    between atoms: C1_1  and  C2_2
REMARK    2  A    between atoms: C2_2  and  C3_3
REMARK    3  A    between atoms: C2_2  and  C4_4
REMARK    4  A    between atoms: C6_6  and  O1_11
REMARK    5  A    between atoms: C7_7  and  C10_10
REMARK                            x       y       z     vdW  Elec       q    Type
REMARK                         _______ _______ _______ _____ _____    ______ ____
ROOT
ATOM      1  C4  UNL     1       7.770  82.028  59.148  0.00  0.00    +0.000 A 
ATOM      2  C5  UNL     1       7.024  82.364  60.290  0.00  0.00    +0.000 A 
ATOM      3  C6  UNL     1       6.540  83.668  60.472  0.00  0.00    +0.000 A 
ATOM      4  C7  UNL     1       6.802  84.655  59.506  0.00  0.00    +0.000 A 
ATOM      5  C8  UNL     1       7.547  84.322  58.364  0.00  0.00    +0.000 A 
ATOM      6  C9  UNL     1       8.027  83.022  58.187  0.00  0.00    +0.000 A 
ATOM      7  C10 UNL     1       6.287  86.054  59.694  0.00  0.00    +0.000 C 
ENDROOT
BRANCH   1   9
ATOM      8  C1  UNL     1       9.198  80.204  60.130  0.00  0.00    +0.000 C 
ATOM      9  C2  UNL     1       8.286  80.613  58.967  0.00  0.00    +0.000 C 
ATOM     10  C3  UNL     1       7.129  79.620  58.797  0.00  0.00    +0.000 C 
ENDBRANCH   1   9
BRANCH   3  11
ATOM     11  O1  UNL     1       5.801  83.986  61.612  0.00  0.00    +0.000 OA
ATOM     12  H14 UNL     1       6.034  83.603  62.521  0.00  0.00    +0.000 HD
ENDBRANCH   3  11
TORSDOF 2
ENDMDL
MODEL 9
REMARK VINA RESULT:      -3.5      2.363      3.489
REMARK  Name = .\Carvacrol.pdb
REMARK  5 active torsions:
REMARK  status: ('A' for Active; 'I' for Inactive)
REMARK    1  A    between atoms: C1_1  and  C2_2
REMARK    2  A    between atoms: C2_2  and  C3_3
REMARK    3  A    between atoms: C2_2  and  C4_4
REMARK    4  A    between atoms: C6_6  and  O1_11
REMARK    5  A    between atoms: C7_7  and  C10_10
REMARK                            x       y       z     vdW  Elec       q    Type
REMARK                         _______ _______ _______ _____ _____    ______ ____
ROOT
ATOM      1  C4  UNL     1       7.984  80.807  58.876  0.00  0.00    +0.000 A 
ATOM      2  C5  UNL     1       8.455  79.852  59.793  0.00  0.00    +0.000 A 
ATOM      3  C6  UNL     1       8.379  78.482  59.501  0.00  0.00    +0.000 A 
ATOM      4  C7  UNL     1       7.826  78.052  58.282  0.00  0.00    +0.000 A 
ATOM      5  C8  UNL     1       7.355  79.005  57.366  0.00  0.00    +0.000 A 
ATOM      6  C9  UNL     1       7.433  80.369  57.659  0.00  0.00    +0.000 A 
ATOM      7  C10 UNL     1       7.742  76.587  57.964  0.00  0.00    +0.000 C 
ENDROOT
BRANCH   1   9
ATOM      8  C1  UNL     1       8.073  83.138  57.933  0.00  0.00    +0.000 C 
ATOM      9  C2  UNL     1       8.073  82.285  59.207  0.00  0.00    +0.000 C 
ATOM     10  C3  UNL     1       6.946  82.709  60.157  0.00  0.00    +0.000 C 
ENDBRANCH   1   9
BRANCH   3  11
ATOM     11  O1  UNL     1       8.851  77.545  60.422  0.00  0.00    +0.000 OA
ATOM     12  H14 UNL     1       9.829  77.503  60.684  0.00  0.00    +0.000 HD
ENDBRANCH   3  11
TORSDOF 2
ENDMDL
