MODEL 1
REMARK VINA RESULT:      -4.5      0.000      0.000
REMARK  Name = .\Carvacrol.pdb
REMARK  5 active torsions:
REMARK  status: ('A' for Active; 'I' for Inactive)
REMARK    1  A    between atoms: C1_1  and  C2_2
REMARK    2  A    between atoms: C2_2  and  C3_3
REMARK    3  A    between atoms: C2_2  and  C4_4
REMARK    4  A    between atoms: C6_6  and  O1_11
REMARK    5  A    between atoms: C7_7  and  C10_10
REMARK                            x       y       z     vdW  Elec       q    Type
REMARK                         _______ _______ _______ _____ _____    ______ ____
ROOT
ATOM      1  C4  UNL     1      -1.810  33.393  28.425  0.00  0.00    +0.000 A 
ATOM      2  C5  UNL     1      -1.654  34.789  28.360  0.00  0.00    +0.000 A 
ATOM      3  C6  UNL     1      -1.705  35.570  29.523  0.00  0.00    +0.000 A 
ATOM      4  C7  UNL     1      -1.915  34.958  30.771  0.00  0.00    +0.000 A 
ATOM      5  C8  UNL     1      -2.071  33.565  30.839  0.00  0.00    +0.000 A 
ATOM      6  C9  UNL     1      -2.019  32.790  29.677  0.00  0.00    +0.000 A 
ATOM      7  C10 UNL     1      -1.972  35.788  32.022  0.00  0.00    +0.000 C 
ENDROOT
BRANCH   1   9
ATOM      8  C1  UNL     1      -0.553  31.608  27.175  0.00  0.00    +0.000 C 
ATOM      9  C2  UNL     1      -1.752  32.563  27.156  0.00  0.00    +0.000 C 
ATOM     10  C3  UNL     1      -3.063  31.800  26.933  0.00  0.00    +0.000 C 
ENDBRANCH   1   9
BRANCH   3  11
ATOM     11  O1  UNL     1      -1.549  36.954  29.443  0.00  0.00    +0.000 OA
ATOM     12  H14 UNL     1      -0.654  37.398  29.610  0.00  0.00    +0.000 HD
ENDBRANCH   3  11
TORSDOF 2
ENDMDL
MODEL 2
REMARK VINA RESULT:      -4.0      1.556      2.134
REMARK  Name = .\Carvacrol.pdb
REMARK  5 active torsions:
REMARK  status: ('A' for Active; 'I' for Inactive)
REMARK    1  A    between atoms: C1_1  and  C2_2
REMARK    2  A    between atoms: C2_2  and  C3_3
REMARK    3  A    between atoms: C2_2  and  C4_4
REMARK    4  A    between atoms: C6_6  and  O1_11
REMARK    5  A    between atoms: C7_7  and  C10_10
REMARK                            x       y       z     vdW  Elec       q    Type
REMARK                         _______ _______ _______ _____ _____    ______ ____
ROOT
ATOM      1  C4  UNL     1      -1.734  33.627  28.744  0.00  0.00    +0.000 A 
ATOM      2  C5  UNL     1      -1.976  32.952  29.952  0.00  0.00    +0.000 A 
ATOM      3  C6  UNL     1      -2.063  33.658  31.162  0.00  0.00    +0.000 A 
ATOM      4  C7  UNL     1      -1.906  35.055  31.172  0.00  0.00    +0.000 A 
ATOM      5  C8  UNL     1      -1.664  35.731  29.967  0.00  0.00    +0.000 A 
ATOM      6  C9  UNL     1      -1.579  35.025  28.764  0.00  0.00    +0.000 A 
ATOM      7  C10 UNL     1      -1.997  35.817  32.464  0.00  0.00    +0.000 C 
ENDROOT
BRANCH   1   9
ATOM      8  C1  UNL     1      -0.383  31.977  27.410  0.00  0.00    +0.000 C 
ATOM      9  C2  UNL     1      -1.644  32.849  27.445  0.00  0.00    +0.000 C 
ATOM     10  C3  UNL     1      -2.905  32.006  27.215  0.00  0.00    +0.000 C 
ENDBRANCH   1   9
BRANCH   3  11
ATOM     11  O1  UNL     1      -2.303  32.974  32.353  0.00  0.00    +0.000 OA
ATOM     12  H14 UNL     1      -3.222  32.958  32.781  0.00  0.00    +0.000 HD
ENDBRANCH   3  11
TORSDOF 2
ENDMDL
MODEL 3
REMARK VINA RESULT:      -3.8      1.948      3.480
REMARK  Name = .\Carvacrol.pdb
REMARK  5 active torsions:
REMARK  status: ('A' for Active; 'I' for Inactive)
REMARK    1  A    between atoms: C1_1  and  C2_2
REMARK    2  A    between atoms: C2_2  and  C3_3
REMARK    3  A    between atoms: C2_2  and  C4_4
REMARK    4  A    between atoms: C6_6  and  O1_11
REMARK    5  A    between atoms: C7_7  and  C10_10
REMARK                            x       y       z     vdW  Elec       q    Type
REMARK                         _______ _______ _______ _____ _____    ______ ____
ROOT
ATOM      1  C4  UNL     1      -2.352  32.807  31.057  0.00  0.00    +0.000 A 
ATOM      2  C5  UNL     1      -2.194  32.853  29.661  0.00  0.00    +0.000 A 
ATOM      3  C6  UNL     1      -1.928  34.066  29.010  0.00  0.00    +0.000 A 
ATOM      4  C7  UNL     1      -1.818  35.254  29.754  0.00  0.00    +0.000 A 
ATOM      5  C8  UNL     1      -1.975  35.211  31.148  0.00  0.00    +0.000 A 
ATOM      6  C9  UNL     1      -2.240  34.000  31.793  0.00  0.00    +0.000 A 
ATOM      7  C10 UNL     1      -1.534  36.557  29.063  0.00  0.00    +0.000 C 
ENDROOT
BRANCH   1   9
ATOM      8  C1  UNL     1      -1.744  31.298  32.975  0.00  0.00    +0.000 C 
ATOM      9  C2  UNL     1      -2.639  31.486  31.745  0.00  0.00    +0.000 C 
ATOM     10  C3  UNL     1      -4.122  31.367  32.118  0.00  0.00    +0.000 C 
ENDBRANCH   1   9
BRANCH   3  11
ATOM     11  O1  UNL     1      -1.775  34.096  27.623  0.00  0.00    +0.000 OA
ATOM     12  H14 UNL     1      -2.246  34.787  27.051  0.00  0.00    +0.000 HD
ENDBRANCH   3  11
TORSDOF 2
ENDMDL
MODEL 4
REMARK VINA RESULT:      -3.7      1.699      3.708
REMARK  Name = .\Carvacrol.pdb
REMARK  5 active torsions:
REMARK  status: ('A' for Active; 'I' for Inactive)
REMARK    1  A    between atoms: C1_1  and  C2_2
REMARK    2  A    between atoms: C2_2  and  C3_3
REMARK    3  A    between atoms: C2_2  and  C4_4
REMARK    4  A    between atoms: C6_6  and  O1_11
REMARK    5  A    between atoms: C7_7  and  C10_10
REMARK                            x       y       z     vdW  Elec       q    Type
REMARK                         _______ _______ _______ _____ _____    ______ ____
ROOT
ATOM      1  C4  UNL     1      -2.304  32.960  31.276  0.00  0.00    +0.000 A 
ATOM      2  C5  UNL     1      -2.413  34.361  31.277  0.00  0.00    +0.000 A 
ATOM      3  C6  UNL     1      -1.959  35.115  30.185  0.00  0.00    +0.000 A 
ATOM      4  C7  UNL     1      -1.388  34.470  29.075  0.00  0.00    +0.000 A 
ATOM      5  C8  UNL     1      -1.279  33.071  29.071  0.00  0.00    +0.000 A 
ATOM      6  C9  UNL     1      -1.732  32.323  30.161  0.00  0.00    +0.000 A 
ATOM      7  C10 UNL     1      -0.899  35.271  27.902  0.00  0.00    +0.000 C 
ENDROOT
BRANCH   1   9
ATOM      8  C1  UNL     1      -4.015  31.303  32.087  0.00  0.00    +0.000 C 
ATOM      9  C2  UNL     1      -2.801  32.159  32.466  0.00  0.00    +0.000 C 
ATOM     10  C3  UNL     1      -1.680  31.298  33.059  0.00  0.00    +0.000 C 
ENDBRANCH   1   9
BRANCH   3  11
ATOM     11  O1  UNL     1      -2.072  36.506  30.202  0.00  0.00    +0.000 OA
ATOM     12  H14 UNL     1      -2.953  36.965  30.404  0.00  0.00    +0.000 HD
ENDBRANCH   3  11
TORSDOF 2
ENDMDL
MODEL 5
REMARK VINA RESULT:      -3.6      2.499      3.770
REMARK  Name = .\Carvacrol.pdb
REMARK  5 active torsions:
REMARK  status: ('A' for Active; 'I' for Inactive)
REMARK    1  A    between atoms: C1_1  and  C2_2
REMARK    2  A    between atoms: C2_2  and  C3_3
REMARK    3  A    between atoms: C2_2  and  C4_4
REMARK    4  A    between atoms: C6_6  and  O1_11
REMARK    5  A    between atoms: C7_7  and  C10_10
REMARK                            x       y       z     vdW  Elec       q    Type
REMARK                         _______ _______ _______ _____ _____    ______ ____
ROOT
ATOM      1  C4  UNL     1      -2.257  33.709  29.664  0.00  0.00    +0.000 A 
ATOM      2  C5  UNL     1      -1.897  33.518  31.009  0.00  0.00    +0.000 A 
ATOM      3  C6  UNL     1      -2.693  32.737  31.860  0.00  0.00    +0.000 A 
ATOM      4  C7  UNL     1      -3.866  32.137  31.368  0.00  0.00    +0.000 A 
ATOM      5  C8  UNL     1      -4.228  32.327  30.026  0.00  0.00    +0.000 A 
ATOM      6  C9  UNL     1      -3.431  33.105  29.182  0.00  0.00    +0.000 A 
ATOM      7  C10 UNL     1      -4.724  31.300  32.273  0.00  0.00    +0.000 C 
ENDROOT
BRANCH   1   9
ATOM      8  C1  UNL     1      -1.349  36.015  29.231  0.00  0.00    +0.000 C 
ATOM      9  C2  UNL     1      -1.383  34.557  28.758  0.00  0.00    +0.000 C 
ATOM     10  C3  UNL     1       0.032  33.976  28.653  0.00  0.00    +0.000 C 
ENDBRANCH   1   9
BRANCH   3  11
ATOM     11  O1  UNL     1      -2.323  32.556  33.192  0.00  0.00    +0.000 OA
ATOM     12  H14 UNL     1      -2.069  31.644  33.555  0.00  0.00    +0.000 HD
ENDBRANCH   3  11
TORSDOF 2
ENDMDL
MODEL 6
REMARK VINA RESULT:      -3.5      2.171      3.734
REMARK  Name = .\Carvacrol.pdb
REMARK  5 active torsions:
REMARK  status: ('A' for Active; 'I' for Inactive)
REMARK    1  A    between atoms: C1_1  and  C2_2
REMARK    2  A    between atoms: C2_2  and  C3_3
REMARK    3  A    between atoms: C2_2  and  C4_4
REMARK    4  A    between atoms: C6_6  and  O1_11
REMARK    5  A    between atoms: C7_7  and  C10_10
REMARK                            x       y       z     vdW  Elec       q    Type
REMARK                         _______ _______ _______ _____ _____    ______ ____
ROOT
ATOM      1  C4  UNL     1      -2.177  32.717  30.241  0.00  0.00    +0.000 A 
ATOM      2  C5  UNL     1      -1.638  33.882  29.669  0.00  0.00    +0.000 A 
ATOM      3  C6  UNL     1      -0.418  33.843  28.978  0.00  0.00    +0.000 A 
ATOM      4  C7  UNL     1       0.279  32.628  28.853  0.00  0.00    +0.000 A 
ATOM      5  C8  UNL     1      -0.257  31.464  29.424  0.00  0.00    +0.000 A 
ATOM      6  C9  UNL     1      -1.473  31.507  30.111  0.00  0.00    +0.000 A 
ATOM      7  C10 UNL     1       1.587  32.578  28.115  0.00  0.00    +0.000 C 
ENDROOT
BRANCH   1   9
ATOM      8  C1  UNL     1      -4.682  32.722  30.013  0.00  0.00    +0.000 C 
ATOM      9  C2  UNL     1      -3.498  32.778  30.985  0.00  0.00    +0.000 C 
ATOM     10  C3  UNL     1      -3.593  31.666  32.036  0.00  0.00    +0.000 C 
ENDBRANCH   1   9
BRANCH   3  11
ATOM     11  O1  UNL     1       0.105  35.008  28.416  0.00  0.00    +0.000 OA
ATOM     12  H14 UNL     1      -0.408  35.882  28.433  0.00  0.00    +0.000 HD
ENDBRANCH   3  11
TORSDOF 2
ENDMDL
MODEL 7
REMARK VINA RESULT:      -3.5      1.414      4.165
REMARK  Name = .\Carvacrol.pdb
REMARK  5 active torsions:
REMARK  status: ('A' for Active; 'I' for Inactive)
REMARK    1  A    between atoms: C1_1  and  C2_2
REMARK    2  A    between atoms: C2_2  and  C3_3
REMARK    3  A    between atoms: C2_2  and  C4_4
REMARK    4  A    between atoms: C6_6  and  O1_11
REMARK    5  A    between atoms: C7_7  and  C10_10
REMARK                            x       y       z     vdW  Elec       q    Type
REMARK                         _______ _______ _______ _____ _____    ______ ____
ROOT
ATOM      1  C4  UNL     1      -2.278  33.458  30.755  0.00  0.00    +0.000 A 
ATOM      2  C5  UNL     1      -1.846  34.389  29.795  0.00  0.00    +0.000 A 
ATOM      3  C6  UNL     1      -1.750  34.031  28.442  0.00  0.00    +0.000 A 
ATOM      4  C7  UNL     1      -2.088  32.728  28.035  0.00  0.00    +0.000 A 
ATOM      5  C8  UNL     1      -2.519  31.797  28.992  0.00  0.00    +0.000 A 
ATOM      6  C9  UNL     1      -2.614  32.157  30.339  0.00  0.00    +0.000 A 
ATOM      7  C10 UNL     1      -1.987  32.337  26.588  0.00  0.00    +0.000 C 
ENDROOT
BRANCH   1   9
ATOM      8  C1  UNL     1      -1.710  32.821  33.122  0.00  0.00    +0.000 C 
ATOM      9  C2  UNL     1      -2.376  33.862  32.214  0.00  0.00    +0.000 C 
ATOM     10  C3  UNL     1      -1.780  35.256  32.443  0.00  0.00    +0.000 C 
ENDBRANCH   1   9
BRANCH   3  11
ATOM     11  O1  UNL     1      -1.319  34.966  27.501  0.00  0.00    +0.000 OA
ATOM     12  H14 UNL     1      -1.364  35.962  27.683  0.00  0.00    +0.000 HD
ENDBRANCH   3  11
TORSDOF 2
ENDMDL
MODEL 8
REMARK VINA RESULT:      -3.1      2.070      4.541
REMARK  Name = .\Carvacrol.pdb
REMARK  5 active torsions:
REMARK  status: ('A' for Active; 'I' for Inactive)
REMARK    1  A    between atoms: C1_1  and  C2_2
REMARK    2  A    between atoms: C2_2  and  C3_3
REMARK    3  A    between atoms: C2_2  and  C4_4
REMARK    4  A    between atoms: C6_6  and  O1_11
REMARK    5  A    between atoms: C7_7  and  C10_10
REMARK                            x       y       z     vdW  Elec       q    Type
REMARK                         _______ _______ _______ _____ _____    ______ ____
ROOT
ATOM      1  C4  UNL     1      -1.955  33.220  29.654  0.00  0.00    +0.000 A 
ATOM      2  C5  UNL     1      -2.830  32.997  28.577  0.00  0.00    +0.000 A 
ATOM      3  C6  UNL     1      -2.378  32.374  27.405  0.00  0.00    +0.000 A 
ATOM      4  C7  UNL     1      -1.038  31.965  27.298  0.00  0.00    +0.000 A 
ATOM      5  C8  UNL     1      -0.162  32.187  28.373  0.00  0.00    +0.000 A 
ATOM      6  C9  UNL     1      -0.616  32.807  29.539  0.00  0.00    +0.000 A 
ATOM      7  C10 UNL     1      -0.547  31.298  26.046  0.00  0.00    +0.000 C 
ENDROOT
BRANCH   1   9
ATOM      8  C1  UNL     1      -2.166  33.042  32.155  0.00  0.00    +0.000 C 
ATOM      9  C2  UNL     1      -2.460  33.895  30.916  0.00  0.00    +0.000 C 
ATOM     10  C3  UNL     1      -1.872  35.304  31.062  0.00  0.00    +0.000 C 
ENDBRANCH   1   9
BRANCH   3  11
ATOM     11  O1  UNL     1      -3.259  32.161  26.344  0.00  0.00    +0.000 OA
ATOM     12  H14 UNL     1      -3.322  31.262  25.878  0.00  0.00    +0.000 HD
ENDBRANCH   3  11
TORSDOF 2
ENDMDL
MODEL 9
REMARK VINA RESULT:      -2.9      2.583      3.231
REMARK  Name = .\Carvacrol.pdb
REMARK  5 active torsions:
REMARK  status: ('A' for Active; 'I' for Inactive)
REMARK    1  A    between atoms: C1_1  and  C2_2
REMARK    2  A    between atoms: C2_2  and  C3_3
REMARK    3  A    between atoms: C2_2  and  C4_4
REMARK    4  A    between atoms: C6_6  and  O1_11
REMARK    5  A    between atoms: C7_7  and  C10_10
REMARK                            x       y       z     vdW  Elec       q    Type
REMARK                         _______ _______ _______ _____ _____    ______ ____
ROOT
ATOM      1  C4  UNL     1      -1.138  32.331  29.572  0.00  0.00    +0.000 A 
ATOM      2  C5  UNL     1      -2.373  32.913  29.240  0.00  0.00    +0.000 A 
ATOM      3  C6  UNL     1      -3.505  32.699  30.040  0.00  0.00    +0.000 A 
ATOM      4  C7  UNL     1      -3.411  31.893  31.188  0.00  0.00    +0.000 A 
ATOM      5  C8  UNL     1      -2.178  31.310  31.522  0.00  0.00    +0.000 A 
ATOM      6  C9  UNL     1      -1.053  31.527  30.723  0.00  0.00    +0.000 A 
ATOM      7  C10 UNL     1      -4.618  31.659  32.049  0.00  0.00    +0.000 C 
ENDROOT
BRANCH   1   9
ATOM      8  C1  UNL     1      -0.161  32.063  27.269  0.00  0.00    +0.000 C 
ATOM      9  C2  UNL     1       0.076  32.573  28.696  0.00  0.00    +0.000 C 
ATOM     10  C3  UNL     1       0.471  34.055  28.694  0.00  0.00    +0.000 C 
ENDBRANCH   1   9
BRANCH   3  11
ATOM     11  O1  UNL     1      -4.724  33.284  29.696  0.00  0.00    +0.000 OA
ATOM     12  H14 UNL     1      -4.817  33.878  28.881  0.00  0.00    +0.000 HD
ENDBRANCH   3  11
TORSDOF 2
ENDMDL
