MODEL 1
REMARK VINA RESULT:      -4.0      0.000      0.000
REMARK  Name = .\Carvone.pdb
REMARK  3 active torsions:
REMARK  status: ('A' for Active; 'I' for Inactive)
REMARK    1  A    between atoms: C1_1  and  C2_2
REMARK    2  A    between atoms: C7_8  and  C8_9
REMARK    3  A    between atoms: C7_8  and  C9_10
REMARK                            x       y       z     vdW  Elec       q    Type
REMARK                         _______ _______ _______ _____ _____    ______ ____
ROOT
ATOM      1  C1  UNL     1       2.017  55.592  59.615  0.00  0.00    +0.000 C 
ATOM      2  C2  UNL     1       0.921  56.628  59.687  0.00  0.00    +0.000 C 
ATOM      3  C3  UNL     1      -0.345  56.193  59.590  0.00  0.00    +0.000 C 
ATOM      4  C4  UNL     1      -1.474  57.122  59.649  0.00  0.00    +0.000 C 
ATOM      5  O1  UNL     1      -2.654  56.691  59.556  0.00  0.00    +0.000 OA
ATOM      6  C5  UNL     1      -1.227  58.551  59.816  0.00  0.00    +0.000 C 
ATOM      7  C6  UNL     1       0.019  59.014  59.916  0.00  0.00    +0.000 C 
ATOM      8  C7  UNL     1       1.254  58.122  59.865  0.00  0.00    +0.000 C 
ATOM      9  C8  UNL     1       2.117  58.602  58.681  0.00  0.00    +0.000 C 
ATOM     10  C9  UNL     1       2.021  58.326  61.186  0.00  0.00    +0.000 C 
ENDROOT
TORSDOF 0
ENDMDL
MODEL 2
REMARK VINA RESULT:      -3.6      1.073      2.663
REMARK  Name = .\Carvone.pdb
REMARK  3 active torsions:
REMARK  status: ('A' for Active; 'I' for Inactive)
REMARK    1  A    between atoms: C1_1  and  C2_2
REMARK    2  A    between atoms: C7_8  and  C8_9
REMARK    3  A    between atoms: C7_8  and  C9_10
REMARK                            x       y       z     vdW  Elec       q    Type
REMARK                         _______ _______ _______ _____ _____    ______ ____
ROOT
ATOM      1  C1  UNL     1      -0.207  59.468  59.498  0.00  0.00    +0.000 C 
ATOM      2  C2  UNL     1      -0.384  57.970  59.542  0.00  0.00    +0.000 C 
ATOM      3  C3  UNL     1      -1.627  57.492  59.372  0.00  0.00    +0.000 C 
ATOM      4  C4  UNL     1      -1.898  56.053  59.398  0.00  0.00    +0.000 C 
ATOM      5  O1  UNL     1      -3.073  55.628  59.235  0.00  0.00    +0.000 OA
ATOM      6  C5  UNL     1      -0.802  55.114  59.613  0.00  0.00    +0.000 C 
ATOM      7  C6  UNL     1       0.444  55.558  59.785  0.00  0.00    +0.000 C 
ATOM      8  C7  UNL     1       0.819  57.035  59.773  0.00  0.00    +0.000 C 
ATOM      9  C8  UNL     1       1.465  57.354  61.136  0.00  0.00    +0.000 C 
ATOM     10  C9  UNL     1       1.852  57.237  58.647  0.00  0.00    +0.000 C 
ENDROOT
TORSDOF 0
ENDMDL
MODEL 3
REMARK VINA RESULT:      -3.5      2.161      3.318
REMARK  Name = .\Carvone.pdb
REMARK  3 active torsions:
REMARK  status: ('A' for Active; 'I' for Inactive)
REMARK    1  A    between atoms: C1_1  and  C2_2
REMARK    2  A    between atoms: C7_8  and  C8_9
REMARK    3  A    between atoms: C7_8  and  C9_10
REMARK                            x       y       z     vdW  Elec       q    Type
REMARK                         _______ _______ _______ _____ _____    ______ ____
ROOT
ATOM      1  C1  UNL     1      -0.468  54.903  60.240  0.00  0.00    +0.000 C 
ATOM      2  C2  UNL     1       0.046  56.315  60.098  0.00  0.00    +0.000 C 
ATOM      3  C3  UNL     1       1.083  56.674  60.871  0.00  0.00    +0.000 C 
ATOM      4  C4  UNL     1       1.650  58.022  60.805  0.00  0.00    +0.000 C 
ATOM      5  O1  UNL     1       2.623  58.336  61.539  0.00  0.00    +0.000 OA
ATOM      6  C5  UNL     1       1.081  59.001  59.883  0.00  0.00    +0.000 C 
ATOM      7  C6  UNL     1       0.052  58.675  59.101  0.00  0.00    +0.000 C 
ATOM      8  C7  UNL     1      -0.602  57.298  59.103  0.00  0.00    +0.000 C 
ATOM      9  C8  UNL     1      -2.087  57.496  59.467  0.00  0.00    +0.000 C 
ATOM     10  C9  UNL     1      -0.487  56.734  57.673  0.00  0.00    +0.000 C 
ENDROOT
TORSDOF 0
ENDMDL
MODEL 4
REMARK VINA RESULT:      -3.4      2.084      3.800
REMARK  Name = .\Carvone.pdb
REMARK  3 active torsions:
REMARK  status: ('A' for Active; 'I' for Inactive)
REMARK    1  A    between atoms: C1_1  and  C2_2
REMARK    2  A    between atoms: C7_8  and  C8_9
REMARK    3  A    between atoms: C7_8  and  C9_10
REMARK                            x       y       z     vdW  Elec       q    Type
REMARK                         _______ _______ _______ _____ _____    ______ ____
ROOT
ATOM      1  C1  UNL     1      -2.122  57.939  59.679  0.00  0.00    +0.000 C 
ATOM      2  C2  UNL     1      -0.668  57.535  59.637  0.00  0.00    +0.000 C 
ATOM      3  C3  UNL     1       0.233  58.434  60.064  0.00  0.00    +0.000 C 
ATOM      4  C4  UNL     1       1.666  58.134  60.061  0.00  0.00    +0.000 C 
ATOM      5  O1  UNL     1       2.493  58.993  60.466  0.00  0.00    +0.000 OA
ATOM      6  C5  UNL     1       2.132  56.834  59.586  0.00  0.00    +0.000 C 
ATOM      7  C6  UNL     1       1.262  55.920  59.157  0.00  0.00    +0.000 C 
ATOM      8  C7  UNL     1      -0.246  56.144  59.124  0.00  0.00    +0.000 C 
ATOM      9  C8  UNL     1      -0.702  55.975  57.661  0.00  0.00    +0.000 C 
ATOM     10  C9  UNL     1      -0.891  55.054  60.001  0.00  0.00    +0.000 C 
ENDROOT
TORSDOF 0
ENDMDL
MODEL 5
REMARK VINA RESULT:      -3.3      1.209      1.447
REMARK  Name = .\Carvone.pdb
REMARK  3 active torsions:
REMARK  status: ('A' for Active; 'I' for Inactive)
REMARK    1  A    between atoms: C1_1  and  C2_2
REMARK    2  A    between atoms: C7_8  and  C8_9
REMARK    3  A    between atoms: C7_8  and  C9_10
REMARK                            x       y       z     vdW  Elec       q    Type
REMARK                         _______ _______ _______ _____ _____    ______ ____
ROOT
ATOM      1  C1  UNL     1       1.255  54.809  58.558  0.00  0.00    +0.000 C 
ATOM      2  C2  UNL     1       0.111  55.736  58.889  0.00  0.00    +0.000 C 
ATOM      3  C3  UNL     1      -1.133  55.243  58.777  0.00  0.00    +0.000 C 
ATOM      4  C4  UNL     1      -2.306  56.066  59.076  0.00  0.00    +0.000 C 
ATOM      5  O1  UNL     1      -3.463  55.582  58.964  0.00  0.00    +0.000 OA
ATOM      6  C5  UNL     1      -2.128  57.451  59.503  0.00  0.00    +0.000 C 
ATOM      7  C6  UNL     1      -0.906  57.969  59.624  0.00  0.00    +0.000 C 
ATOM      8  C7  UNL     1       0.371  57.189  59.335  0.00  0.00    +0.000 C 
ATOM      9  C8  UNL     1       1.126  57.942  58.222  0.00  0.00    +0.000 C 
ATOM     10  C9  UNL     1       1.210  57.188  60.627  0.00  0.00    +0.000 C 
ENDROOT
TORSDOF 0
ENDMDL
MODEL 6
REMARK VINA RESULT:      -3.3      1.004      2.444
REMARK  Name = .\Carvone.pdb
REMARK  3 active torsions:
REMARK  status: ('A' for Active; 'I' for Inactive)
REMARK    1  A    between atoms: C1_1  and  C2_2
REMARK    2  A    between atoms: C7_8  and  C8_9
REMARK    3  A    between atoms: C7_8  and  C9_10
REMARK                            x       y       z     vdW  Elec       q    Type
REMARK                         _______ _______ _______ _____ _____    ______ ____
ROOT
ATOM      1  C1  UNL     1       2.258  58.748  60.608  0.00  0.00    +0.000 C 
ATOM      2  C2  UNL     1       1.108  58.039  59.935  0.00  0.00    +0.000 C 
ATOM      3  C3  UNL     1      -0.134  58.421  60.273  0.00  0.00    +0.000 C 
ATOM      4  C4  UNL     1      -1.312  57.792  59.675  0.00  0.00    +0.000 C 
ATOM      5  O1  UNL     1      -2.468  58.167  60.007  0.00  0.00    +0.000 OA
ATOM      6  C5  UNL     1      -1.142  56.727  58.690  0.00  0.00    +0.000 C 
ATOM      7  C6  UNL     1       0.077  56.326  58.333  0.00  0.00    +0.000 C 
ATOM      8  C7  UNL     1       1.359  56.922  58.903  0.00  0.00    +0.000 C 
ATOM      9  C8  UNL     1       2.143  55.773  59.568  0.00  0.00    +0.000 C 
ATOM     10  C9  UNL     1       2.168  57.488  57.719  0.00  0.00    +0.000 C 
ENDROOT
TORSDOF 0
ENDMDL
MODEL 7
REMARK VINA RESULT:      -3.3      2.084      3.618
REMARK  Name = .\Carvone.pdb
REMARK  3 active torsions:
REMARK  status: ('A' for Active; 'I' for Inactive)
REMARK    1  A    between atoms: C1_1  and  C2_2
REMARK    2  A    between atoms: C7_8  and  C8_9
REMARK    3  A    between atoms: C7_8  and  C9_10
REMARK                            x       y       z     vdW  Elec       q    Type
REMARK                         _______ _______ _______ _____ _____    ______ ____
ROOT
ATOM      1  C1  UNL     1       0.452  54.948  57.696  0.00  0.00    +0.000 C 
ATOM      2  C2  UNL     1      -0.260  56.077  58.401  0.00  0.00    +0.000 C 
ATOM      3  C3  UNL     1       0.500  57.046  58.934  0.00  0.00    +0.000 C 
ATOM      4  C4  UNL     1      -0.100  58.182  59.638  0.00  0.00    +0.000 C 
ATOM      5  O1  UNL     1       0.633  59.080  60.130  0.00  0.00    +0.000 OA
ATOM      6  C5  UNL     1      -1.552  58.268  59.767  0.00  0.00    +0.000 C 
ATOM      7  C6  UNL     1      -2.333  57.321  59.248  0.00  0.00    +0.000 C 
ATOM      8  C7  UNL     1      -1.798  56.105  58.500  0.00  0.00    +0.000 C 
ATOM      9  C8  UNL     1      -2.289  54.852  59.252  0.00  0.00    +0.000 C 
ATOM     10  C9  UNL     1      -2.405  56.134  57.084  0.00  0.00    +0.000 C 
ENDROOT
TORSDOF 0
ENDMDL
MODEL 8
REMARK VINA RESULT:      -3.3      6.108      7.722
REMARK  Name = .\Carvone.pdb
REMARK  3 active torsions:
REMARK  status: ('A' for Active; 'I' for Inactive)
REMARK    1  A    between atoms: C1_1  and  C2_2
REMARK    2  A    between atoms: C7_8  and  C8_9
REMARK    3  A    between atoms: C7_8  and  C9_10
REMARK                            x       y       z     vdW  Elec       q    Type
REMARK                         _______ _______ _______ _____ _____    ______ ____
ROOT
ATOM      1  C1  UNL     1       9.128  61.768  59.734  0.00  0.00    +0.000 C 
ATOM      2  C2  UNL     1       7.655  61.443  59.787  0.00  0.00    +0.000 C 
ATOM      3  C3  UNL     1       7.167  60.984  60.950  0.00  0.00    +0.000 C 
ATOM      4  C4  UNL     1       5.751  60.642  61.098  0.00  0.00    +0.000 C 
ATOM      5  O1  UNL     1       5.316  60.213  62.199  0.00  0.00    +0.000 OA
ATOM      6  C5  UNL     1       4.846  60.800  59.963  0.00  0.00    +0.000 C 
ATOM      7  C6  UNL     1       5.300  61.254  58.795  0.00  0.00    +0.000 C 
ATOM      8  C7  UNL     1       6.756  61.634  58.549  0.00  0.00    +0.000 C 
ATOM      9  C8  UNL     1       7.272  60.750  57.397  0.00  0.00    +0.000 C 
ATOM     10  C9  UNL     1       6.777  63.114  58.121  0.00  0.00    +0.000 C 
ENDROOT
TORSDOF 0
ENDMDL
MODEL 9
REMARK VINA RESULT:      -3.3      2.726      4.033
REMARK  Name = .\Carvone.pdb
REMARK  3 active torsions:
REMARK  status: ('A' for Active; 'I' for Inactive)
REMARK    1  A    between atoms: C1_1  and  C2_2
REMARK    2  A    between atoms: C7_8  and  C8_9
REMARK    3  A    between atoms: C7_8  and  C9_10
REMARK                            x       y       z     vdW  Elec       q    Type
REMARK                         _______ _______ _______ _____ _____    ______ ____
ROOT
ATOM      1  C1  UNL     1       0.989  57.429  57.453  0.00  0.00    +0.000 C 
ATOM      2  C2  UNL     1       1.664  57.859  58.732  0.00  0.00    +0.000 C 
ATOM      3  C3  UNL     1       2.934  58.286  58.646  0.00  0.00    +0.000 C 
ATOM      4  C4  UNL     1       3.671  58.724  59.832  0.00  0.00    +0.000 C 
ATOM      5  O1  UNL     1       4.862  59.121  59.726  0.00  0.00    +0.000 OA
ATOM      6  C5  UNL     1       3.020  58.699  61.138  0.00  0.00    +0.000 C 
ATOM      7  C6  UNL     1       1.759  58.281  61.257  0.00  0.00    +0.000 C 
ATOM      8  C7  UNL     1       0.916  57.808  60.079  0.00  0.00    +0.000 C 
ATOM      9  C8  UNL     1       0.489  56.356  60.376  0.00  0.00    +0.000 C 
ATOM     10  C9  UNL     1      -0.328  58.714  60.013  0.00  0.00    +0.000 C 
ENDROOT
TORSDOF 0
ENDMDL
