MODEL 1
REMARK VINA RESULT:      -4.5      0.000      0.000
REMARK  Name = .\Carvone.pdb
REMARK  3 active torsions:
REMARK  status: ('A' for Active; 'I' for Inactive)
REMARK    1  A    between atoms: C1_1  and  C2_2
REMARK    2  A    between atoms: C7_8  and  C8_9
REMARK    3  A    between atoms: C7_8  and  C9_10
REMARK                            x       y       z     vdW  Elec       q    Type
REMARK                         _______ _______ _______ _____ _____    ______ ____
ROOT
ATOM      1  C1  UNL     1      -6.428  64.034  16.121  0.00  0.00    +0.000 C 
ATOM      2  C2  UNL     1      -7.202  63.467  14.956  0.00  0.00    +0.000 C 
ATOM      3  C3  UNL     1      -7.034  64.055  13.761  0.00  0.00    +0.000 C 
ATOM      4  C4  UNL     1      -7.741  63.576  12.572  0.00  0.00    +0.000 C 
ATOM      5  O1  UNL     1      -7.567  64.143  11.461  0.00  0.00    +0.000 OA
ATOM      6  C5  UNL     1      -8.649  62.438  12.680  0.00  0.00    +0.000 C 
ATOM      7  C6  UNL     1      -8.837  61.832  13.852  0.00  0.00    +0.000 C 
ATOM      8  C7  UNL     1      -8.144  62.261  15.141  0.00  0.00    +0.000 C 
ATOM      9  C8  UNL     1      -9.248  62.621  16.156  0.00  0.00    +0.000 C 
ATOM     10  C9  UNL     1      -7.339  61.052  15.653  0.00  0.00    +0.000 C 
ENDROOT
TORSDOF 0
ENDMDL
MODEL 2
REMARK VINA RESULT:      -4.3      2.323      3.286
REMARK  Name = .\Carvone.pdb
REMARK  3 active torsions:
REMARK  status: ('A' for Active; 'I' for Inactive)
REMARK    1  A    between atoms: C1_1  and  C2_2
REMARK    2  A    between atoms: C7_8  and  C8_9
REMARK    3  A    between atoms: C7_8  and  C9_10
REMARK                            x       y       z     vdW  Elec       q    Type
REMARK                         _______ _______ _______ _____ _____    ______ ____
ROOT
ATOM      1  C1  UNL     1      -5.768  63.928  15.998  0.00  0.00    +0.000 C 
ATOM      2  C2  UNL     1      -6.793  62.906  15.569  0.00  0.00    +0.000 C 
ATOM      3  C3  UNL     1      -6.608  61.641  15.977  0.00  0.00    +0.000 C 
ATOM      4  C4  UNL     1      -7.549  60.580  15.611  0.00  0.00    +0.000 C 
ATOM      5  O1  UNL     1      -7.355  59.400  16.005  0.00  0.00    +0.000 OA
ATOM      6  C5  UNL     1      -8.712  60.897  14.788  0.00  0.00    +0.000 C 
ATOM      7  C6  UNL     1      -8.923  62.144  14.368  0.00  0.00    +0.000 C 
ATOM      8  C7  UNL     1      -7.999  63.311  14.699  0.00  0.00    +0.000 C 
ATOM      9  C8  UNL     1      -7.497  63.891  13.362  0.00  0.00    +0.000 C 
ATOM     10  C9  UNL     1      -8.840  64.366  15.443  0.00  0.00    +0.000 C 
ENDROOT
TORSDOF 0
ENDMDL
MODEL 3
REMARK VINA RESULT:      -4.2      3.244      4.345
REMARK  Name = .\Carvone.pdb
REMARK  3 active torsions:
REMARK  status: ('A' for Active; 'I' for Inactive)
REMARK    1  A    between atoms: C1_1  and  C2_2
REMARK    2  A    between atoms: C7_8  and  C8_9
REMARK    3  A    between atoms: C7_8  and  C9_10
REMARK                            x       y       z     vdW  Elec       q    Type
REMARK                         _______ _______ _______ _____ _____    ______ ____
ROOT
ATOM      1  C1  UNL     1      -6.800  61.841  15.812  0.00  0.00    +0.000 C 
ATOM      2  C2  UNL     1      -7.474  60.514  15.564  0.00  0.00    +0.000 C 
ATOM      3  C3  UNL     1      -6.683  59.452  15.345  0.00  0.00    +0.000 C 
ATOM      4  C4  UNL     1      -7.244  58.124  15.095  0.00  0.00    +0.000 C 
ATOM      5  O1  UNL     1      -6.482  57.142  14.893  0.00  0.00    +0.000 OA
ATOM      6  C5  UNL     1      -8.693  57.942  15.081  0.00  0.00    +0.000 C 
ATOM      7  C6  UNL     1      -9.506  58.977  15.295  0.00  0.00    +0.000 C 
ATOM      8  C7  UNL     1      -9.011  60.393  15.563  0.00  0.00    +0.000 C 
ATOM      9  C8  UNL     1      -9.599  61.299  14.463  0.00  0.00    +0.000 C 
ATOM     10  C9  UNL     1      -9.562  60.819  16.938  0.00  0.00    +0.000 C 
ENDROOT
TORSDOF 0
ENDMDL
MODEL 4
REMARK VINA RESULT:      -4.1      3.303      4.766
REMARK  Name = .\Carvone.pdb
REMARK  3 active torsions:
REMARK  status: ('A' for Active; 'I' for Inactive)
REMARK    1  A    between atoms: C1_1  and  C2_2
REMARK    2  A    between atoms: C7_8  and  C8_9
REMARK    3  A    between atoms: C7_8  and  C9_10
REMARK                            x       y       z     vdW  Elec       q    Type
REMARK                         _______ _______ _______ _____ _____    ______ ____
ROOT
ATOM      1  C1  UNL     1     -10.758  60.835  15.886  0.00  0.00    +0.000 C 
ATOM      2  C2  UNL     1      -9.453  60.131  15.606  0.00  0.00    +0.000 C 
ATOM      3  C3  UNL     1      -9.494  58.799  15.447  0.00  0.00    +0.000 C 
ATOM      4  C4  UNL     1      -8.279  58.029  15.172  0.00  0.00    +0.000 C 
ATOM      5  O1  UNL     1      -8.342  56.779  15.027  0.00  0.00    +0.000 OA
ATOM      6  C5  UNL     1      -6.995  58.715  15.068  0.00  0.00    +0.000 C 
ATOM      7  C6  UNL     1      -6.922  60.037  15.220  0.00  0.00    +0.000 C 
ATOM      8  C7  UNL     1      -8.132  60.919  15.508  0.00  0.00    +0.000 C 
ATOM      9  C8  UNL     1      -7.864  61.643  16.843  0.00  0.00    +0.000 C 
ATOM     10  C9  UNL     1      -8.230  61.950  14.367  0.00  0.00    +0.000 C 
ENDROOT
TORSDOF 0
ENDMDL
MODEL 5
REMARK VINA RESULT:      -4.1      4.345      6.048
REMARK  Name = .\Carvone.pdb
REMARK  3 active torsions:
REMARK  status: ('A' for Active; 'I' for Inactive)
REMARK    1  A    between atoms: C1_1  and  C2_2
REMARK    2  A    between atoms: C7_8  and  C8_9
REMARK    3  A    between atoms: C7_8  and  C9_10
REMARK                            x       y       z     vdW  Elec       q    Type
REMARK                         _______ _______ _______ _____ _____    ______ ____
ROOT
ATOM      1  C1  UNL     1      -8.406  56.482  17.343  0.00  0.00    +0.000 C 
ATOM      2  C2  UNL     1      -7.666  57.208  16.246  0.00  0.00    +0.000 C 
ATOM      3  C3  UNL     1      -7.837  58.537  16.162  0.00  0.00    +0.000 C 
ATOM      4  C4  UNL     1      -7.161  59.326  15.131  0.00  0.00    +0.000 C 
ATOM      5  O1  UNL     1      -7.335  60.572  15.072  0.00  0.00    +0.000 OA
ATOM      6  C5  UNL     1      -6.283  58.663  14.172  0.00  0.00    +0.000 C 
ATOM      7  C6  UNL     1      -6.092  57.345  14.229  0.00  0.00    +0.000 C 
ATOM      8  C7  UNL     1      -6.754  56.444  15.266  0.00  0.00    +0.000 C 
ATOM      9  C8  UNL     1      -7.585  55.396  14.499  0.00  0.00    +0.000 C 
ATOM     10  C9  UNL     1      -5.627  55.744  16.050  0.00  0.00    +0.000 C 
ENDROOT
TORSDOF 0
ENDMDL
MODEL 6
REMARK VINA RESULT:      -4.0      2.102      3.483
REMARK  Name = .\Carvone.pdb
REMARK  3 active torsions:
REMARK  status: ('A' for Active; 'I' for Inactive)
REMARK    1  A    between atoms: C1_1  and  C2_2
REMARK    2  A    between atoms: C7_8  and  C8_9
REMARK    3  A    between atoms: C7_8  and  C9_10
REMARK                            x       y       z     vdW  Elec       q    Type
REMARK                         _______ _______ _______ _____ _____    ______ ____
ROOT
ATOM      1  C1  UNL     1      -8.628  64.157  12.814  0.00  0.00    +0.000 C 
ATOM      2  C2  UNL     1      -8.045  63.378  13.968  0.00  0.00    +0.000 C 
ATOM      3  C3  UNL     1      -8.276  62.056  13.997  0.00  0.00    +0.000 C 
ATOM      4  C4  UNL     1      -7.752  61.216  15.076  0.00  0.00    +0.000 C 
ATOM      5  O1  UNL     1      -7.982  59.978  15.083  0.00  0.00    +0.000 OA
ATOM      6  C5  UNL     1      -6.963  61.821  16.145  0.00  0.00    +0.000 C 
ATOM      7  C6  UNL     1      -6.715  63.131  16.143  0.00  0.00    +0.000 C 
ATOM      8  C7  UNL     1      -7.219  64.081  15.063  0.00  0.00    +0.000 C 
ATOM      9  C8  UNL     1      -8.089  65.146  15.759  0.00  0.00    +0.000 C 
ATOM     10  C9  UNL     1      -5.984  64.749  14.427  0.00  0.00    +0.000 C 
ENDROOT
TORSDOF 0
ENDMDL
MODEL 7
REMARK VINA RESULT:      -3.9      1.244      1.594
REMARK  Name = .\Carvone.pdb
REMARK  3 active torsions:
REMARK  status: ('A' for Active; 'I' for Inactive)
REMARK    1  A    between atoms: C1_1  and  C2_2
REMARK    2  A    between atoms: C7_8  and  C8_9
REMARK    3  A    between atoms: C7_8  and  C9_10
REMARK                            x       y       z     vdW  Elec       q    Type
REMARK                         _______ _______ _______ _____ _____    ______ ____
ROOT
ATOM      1  C1  UNL     1      -7.631  62.040  16.482  0.00  0.00    +0.000 C 
ATOM      2  C2  UNL     1      -8.283  62.246  15.136  0.00  0.00    +0.000 C 
ATOM      3  C3  UNL     1      -7.590  62.936  14.216  0.00  0.00    +0.000 C 
ATOM      4  C4  UNL     1      -8.139  63.188  12.883  0.00  0.00    +0.000 C 
ATOM      5  O1  UNL     1      -7.471  63.837  12.035  0.00  0.00    +0.000 OA
ATOM      6  C5  UNL     1      -9.465  62.682  12.539  0.00  0.00    +0.000 C 
ATOM      7  C6  UNL     1     -10.178  61.993  13.431  0.00  0.00    +0.000 C 
ATOM      8  C7  UNL     1      -9.687  61.684  14.841  0.00  0.00    +0.000 C 
ATOM      9  C8  UNL     1     -10.704  62.296  15.824  0.00  0.00    +0.000 C 
ATOM     10  C9  UNL     1      -9.671  60.151  14.995  0.00  0.00    +0.000 C 
ENDROOT
TORSDOF 0
ENDMDL
MODEL 8
REMARK VINA RESULT:      -3.9      2.015      3.066
REMARK  Name = .\Carvone.pdb
REMARK  3 active torsions:
REMARK  status: ('A' for Active; 'I' for Inactive)
REMARK    1  A    between atoms: C1_1  and  C2_2
REMARK    2  A    between atoms: C7_8  and  C8_9
REMARK    3  A    between atoms: C7_8  and  C9_10
REMARK                            x       y       z     vdW  Elec       q    Type
REMARK                         _______ _______ _______ _____ _____    ______ ____
ROOT
ATOM      1  C1  UNL     1      -8.212  61.525  16.624  0.00  0.00    +0.000 C 
ATOM      2  C2  UNL     1      -7.586  62.645  15.828  0.00  0.00    +0.000 C 
ATOM      3  C3  UNL     1      -6.372  63.069  16.212  0.00  0.00    +0.000 C 
ATOM      4  C4  UNL     1      -5.685  64.150  15.502  0.00  0.00    +0.000 C 
ATOM      5  O1  UNL     1      -4.546  64.531  15.880  0.00  0.00    +0.000 OA
ATOM      6  C5  UNL     1      -6.327  64.784  14.354  0.00  0.00    +0.000 C 
ATOM      7  C6  UNL     1      -7.532  64.384  13.948  0.00  0.00    +0.000 C 
ATOM      8  C7  UNL     1      -8.321  63.269  14.625  0.00  0.00    +0.000 C 
ATOM      9  C8  UNL     1      -9.658  63.874  15.095  0.00  0.00    +0.000 C 
ATOM     10  C9  UNL     1      -8.584  62.184  13.563  0.00  0.00    +0.000 C 
ENDROOT
TORSDOF 0
ENDMDL
MODEL 9
REMARK VINA RESULT:      -3.8      3.967      5.441
REMARK  Name = .\Carvone.pdb
REMARK  3 active torsions:
REMARK  status: ('A' for Active; 'I' for Inactive)
REMARK    1  A    between atoms: C1_1  and  C2_2
REMARK    2  A    between atoms: C7_8  and  C8_9
REMARK    3  A    between atoms: C7_8  and  C9_10
REMARK                            x       y       z     vdW  Elec       q    Type
REMARK                         _______ _______ _______ _____ _____    ______ ____
ROOT
ATOM      1  C1  UNL     1      -4.903  58.389  14.362  0.00  0.00    +0.000 C 
ATOM      2  C2  UNL     1      -6.341  58.375  14.818  0.00  0.00    +0.000 C 
ATOM      3  C3  UNL     1      -6.914  59.559  15.088  0.00  0.00    +0.000 C 
ATOM      4  C4  UNL     1      -8.304  59.646  15.536  0.00  0.00    +0.000 C 
ATOM      5  O1  UNL     1      -8.821  60.767  15.784  0.00  0.00    +0.000 OA
ATOM      6  C5  UNL     1      -9.091  58.426  15.696  0.00  0.00    +0.000 C 
ATOM      7  C6  UNL     1      -8.551  57.235  15.435  0.00  0.00    +0.000 C 
ATOM      8  C7  UNL     1      -7.113  57.049  14.964  0.00  0.00    +0.000 C 
ATOM      9  C8  UNL     1      -6.405  56.152  15.999  0.00  0.00    +0.000 C 
ATOM     10  C9  UNL     1      -7.167  56.330  13.602  0.00  0.00    +0.000 C 
ENDROOT
TORSDOF 0
ENDMDL
