MODEL 1
REMARK VINA RESULT:      -6.4      0.000      0.000
REMARK  Name = .\Carvacrol.pdb
REMARK  5 active torsions:
REMARK  status: ('A' for Active; 'I' for Inactive)
REMARK    1  A    between atoms: C1_1  and  C2_2
REMARK    2  A    between atoms: C2_2  and  C3_3
REMARK    3  A    between atoms: C2_2  and  C4_4
REMARK    4  A    between atoms: C6_6  and  O1_11
REMARK    5  A    between atoms: C7_7  and  C10_10
REMARK                            x       y       z     vdW  Elec       q    Type
REMARK                         _______ _______ _______ _____ _____    ______ ____
ROOT
ATOM      1  C4  UNL     1     -18.356  55.994 -29.267  0.00  0.00    +0.000 A 
ATOM      2  C5  UNL     1     -19.107  54.891 -29.708  0.00  0.00    +0.000 A 
ATOM      3  C6  UNL     1     -18.773  53.590 -29.305  0.00  0.00    +0.000 A 
ATOM      4  C7  UNL     1     -17.677  53.378 -28.452  0.00  0.00    +0.000 A 
ATOM      5  C8  UNL     1     -16.925  54.478 -28.010  0.00  0.00    +0.000 A 
ATOM      6  C9  UNL     1     -17.261  55.773 -28.413  0.00  0.00    +0.000 A 
ATOM      7  C10 UNL     1     -17.313  51.987 -28.016  0.00  0.00    +0.000 C 
ENDROOT
BRANCH   1   9
ATOM      8  C1  UNL     1     -18.066  58.453 -28.824  0.00  0.00    +0.000 C 
ATOM      9  C2  UNL     1     -18.731  57.395 -29.712  0.00  0.00    +0.000 C 
ATOM     10  C3  UNL     1     -18.384  57.617 -31.189  0.00  0.00    +0.000 C 
ENDBRANCH   1   9
BRANCH   3  11
ATOM     11  O1  UNL     1     -19.528  52.505 -29.752  0.00  0.00    +0.000 OA
ATOM     12  H14 UNL     1     -19.706  51.701 -29.161  0.00  0.00    +0.000 HD
ENDBRANCH   3  11
TORSDOF 2
ENDMDL
MODEL 2
REMARK VINA RESULT:      -6.1      1.935      4.534
REMARK  Name = .\Carvacrol.pdb
REMARK  5 active torsions:
REMARK  status: ('A' for Active; 'I' for Inactive)
REMARK    1  A    between atoms: C1_1  and  C2_2
REMARK    2  A    between atoms: C2_2  and  C3_3
REMARK    3  A    between atoms: C2_2  and  C4_4
REMARK    4  A    between atoms: C6_6  and  O1_11
REMARK    5  A    between atoms: C7_7  and  C10_10
REMARK                            x       y       z     vdW  Elec       q    Type
REMARK                         _______ _______ _______ _____ _____    ______ ____
ROOT
ATOM      1  C4  UNL     1     -18.442  55.758 -29.160  0.00  0.00    +0.000 A 
ATOM      2  C5  UNL     1     -18.897  55.895 -30.483  0.00  0.00    +0.000 A 
ATOM      3  C6  UNL     1     -18.900  57.148 -31.113  0.00  0.00    +0.000 A 
ATOM      4  C7  UNL     1     -18.443  58.283 -30.421  0.00  0.00    +0.000 A 
ATOM      5  C8  UNL     1     -17.989  58.148 -29.100  0.00  0.00    +0.000 A 
ATOM      6  C9  UNL     1     -17.987  56.899 -28.476  0.00  0.00    +0.000 A 
ATOM      7  C10 UNL     1     -18.443  59.628 -31.089  0.00  0.00    +0.000 C 
ENDROOT
BRANCH   1   9
ATOM      8  C1  UNL     1     -18.885  53.301 -29.475  0.00  0.00    +0.000 C 
ATOM      9  C2  UNL     1     -18.447  54.395 -28.494  0.00  0.00    +0.000 C 
ATOM     10  C3  UNL     1     -17.077  54.073 -27.883  0.00  0.00    +0.000 C 
ENDBRANCH   1   9
BRANCH   3  11
ATOM     11  O1  UNL     1     -19.355  57.268 -32.426  0.00  0.00    +0.000 OA
ATOM     12  H14 UNL     1     -19.657  56.461 -32.960  0.00  0.00    +0.000 HD
ENDBRANCH   3  11
TORSDOF 2
ENDMDL
MODEL 3
REMARK VINA RESULT:      -6.0      1.675      2.708
REMARK  Name = .\Carvacrol.pdb
REMARK  5 active torsions:
REMARK  status: ('A' for Active; 'I' for Inactive)
REMARK    1  A    between atoms: C1_1  and  C2_2
REMARK    2  A    between atoms: C2_2  and  C3_3
REMARK    3  A    between atoms: C2_2  and  C4_4
REMARK    4  A    between atoms: C6_6  and  O1_11
REMARK    5  A    between atoms: C7_7  and  C10_10
REMARK                            x       y       z     vdW  Elec       q    Type
REMARK                         _______ _______ _______ _____ _____    ______ ____
ROOT
ATOM      1  C4  UNL     1     -18.147  57.393 -29.936  0.00  0.00    +0.000 A 
ATOM      2  C5  UNL     1     -17.391  56.764 -28.932  0.00  0.00    +0.000 A 
ATOM      3  C6  UNL     1     -17.573  55.403 -28.646  0.00  0.00    +0.000 A 
ATOM      4  C7  UNL     1     -18.520  54.654 -29.367  0.00  0.00    +0.000 A 
ATOM      5  C8  UNL     1     -19.275  55.281 -30.370  0.00  0.00    +0.000 A 
ATOM      6  C9  UNL     1     -19.091  56.636 -30.652  0.00  0.00    +0.000 A 
ATOM      7  C10 UNL     1     -18.720  53.196 -29.066  0.00  0.00    +0.000 C 
ENDROOT
BRANCH   1   9
ATOM      8  C1  UNL     1     -18.761  59.308 -31.447  0.00  0.00    +0.000 C 
ATOM      9  C2  UNL     1     -17.937  58.867 -30.232  0.00  0.00    +0.000 C 
ATOM     10  C3  UNL     1     -18.256  59.729 -29.005  0.00  0.00    +0.000 C 
ENDBRANCH   1   9
BRANCH   3  11
ATOM     11  O1  UNL     1     -16.816  54.792 -27.646  0.00  0.00    +0.000 OA
ATOM     12  H14 UNL     1     -15.973  54.272 -27.860  0.00  0.00    +0.000 HD
ENDBRANCH   3  11
TORSDOF 2
ENDMDL
MODEL 4
REMARK VINA RESULT:      -5.9      1.563      2.211
REMARK  Name = .\Carvacrol.pdb
REMARK  5 active torsions:
REMARK  status: ('A' for Active; 'I' for Inactive)
REMARK    1  A    between atoms: C1_1  and  C2_2
REMARK    2  A    between atoms: C2_2  and  C3_3
REMARK    3  A    between atoms: C2_2  and  C4_4
REMARK    4  A    between atoms: C6_6  and  O1_11
REMARK    5  A    between atoms: C7_7  and  C10_10
REMARK                            x       y       z     vdW  Elec       q    Type
REMARK                         _______ _______ _______ _____ _____    ______ ____
ROOT
ATOM      1  C4  UNL     1     -18.655  56.901 -29.581  0.00  0.00    +0.000 A 
ATOM      2  C5  UNL     1     -17.694  56.469 -28.651  0.00  0.00    +0.000 A 
ATOM      3  C6  UNL     1     -17.479  55.101 -28.427  0.00  0.00    +0.000 A 
ATOM      4  C7  UNL     1     -18.229  54.146 -29.136  0.00  0.00    +0.000 A 
ATOM      5  C8  UNL     1     -19.190  54.576 -30.065  0.00  0.00    +0.000 A 
ATOM      6  C9  UNL     1     -19.401  55.939 -30.286  0.00  0.00    +0.000 A 
ATOM      7  C10 UNL     1     -18.004  52.680 -28.900  0.00  0.00    +0.000 C 
ENDROOT
BRANCH   1   9
ATOM      8  C1  UNL     1     -18.068  59.224 -28.814  0.00  0.00    +0.000 C 
ATOM      9  C2  UNL     1     -18.875  58.384 -29.812  0.00  0.00    +0.000 C 
ATOM     10  C3  UNL     1     -18.544  58.775 -31.257  0.00  0.00    +0.000 C 
ENDBRANCH   1   9
BRANCH   3  11
ATOM     11  O1  UNL     1     -16.522  54.687 -27.500  0.00  0.00    +0.000 OA
ATOM     12  H14 UNL     1     -15.571  54.471 -27.778  0.00  0.00    +0.000 HD
ENDBRANCH   3  11
TORSDOF 2
ENDMDL
MODEL 5
REMARK VINA RESULT:      -5.7      2.325      3.382
REMARK  Name = .\Carvacrol.pdb
REMARK  5 active torsions:
REMARK  status: ('A' for Active; 'I' for Inactive)
REMARK    1  A    between atoms: C1_1  and  C2_2
REMARK    2  A    between atoms: C2_2  and  C3_3
REMARK    3  A    between atoms: C2_2  and  C4_4
REMARK    4  A    between atoms: C6_6  and  O1_11
REMARK    5  A    between atoms: C7_7  and  C10_10
REMARK                            x       y       z     vdW  Elec       q    Type
REMARK                         _______ _______ _______ _____ _____    ______ ____
ROOT
ATOM      1  C4  UNL     1     -19.794  54.733 -30.847  0.00  0.00    +0.000 A 
ATOM      2  C5  UNL     1     -19.090  55.778 -30.226  0.00  0.00    +0.000 A 
ATOM      3  C6  UNL     1     -18.216  55.518 -29.160  0.00  0.00    +0.000 A 
ATOM      4  C7  UNL     1     -18.039  54.200 -28.703  0.00  0.00    +0.000 A 
ATOM      5  C8  UNL     1     -18.741  53.155 -29.322  0.00  0.00    +0.000 A 
ATOM      6  C9  UNL     1     -19.610  53.418 -30.384  0.00  0.00    +0.000 A 
ATOM      7  C10 UNL     1     -17.105  53.914 -27.561  0.00  0.00    +0.000 C 
ENDROOT
BRANCH   1   9
ATOM      8  C1  UNL     1     -20.159  56.118 -32.916  0.00  0.00    +0.000 C 
ATOM      9  C2  UNL     1     -20.735  55.032 -32.000  0.00  0.00    +0.000 C 
ATOM     10  C3  UNL     1     -21.064  53.759 -32.790  0.00  0.00    +0.000 C 
ENDBRANCH   1   9
BRANCH   3  11
ATOM     11  O1  UNL     1     -17.524  56.566 -28.552  0.00  0.00    +0.000 OA
ATOM     12  H14 UNL     1     -17.781  56.910 -27.634  0.00  0.00    +0.000 HD
ENDBRANCH   3  11
TORSDOF 2
ENDMDL
MODEL 6
REMARK VINA RESULT:      -5.7      1.867      4.150
REMARK  Name = .\Carvacrol.pdb
REMARK  5 active torsions:
REMARK  status: ('A' for Active; 'I' for Inactive)
REMARK    1  A    between atoms: C1_1  and  C2_2
REMARK    2  A    between atoms: C2_2  and  C3_3
REMARK    3  A    between atoms: C2_2  and  C4_4
REMARK    4  A    between atoms: C6_6  and  O1_11
REMARK    5  A    between atoms: C7_7  and  C10_10
REMARK                            x       y       z     vdW  Elec       q    Type
REMARK                         _______ _______ _______ _____ _____    ______ ____
ROOT
ATOM      1  C4  UNL     1     -18.875  54.098 -29.390  0.00  0.00    +0.000 A 
ATOM      2  C5  UNL     1     -19.587  53.122 -30.108  0.00  0.00    +0.000 A 
ATOM      3  C6  UNL     1     -20.328  53.469 -31.247  0.00  0.00    +0.000 A 
ATOM      4  C7  UNL     1     -20.366  54.805 -31.680  0.00  0.00    +0.000 A 
ATOM      5  C8  UNL     1     -19.656  55.782 -30.965  0.00  0.00    +0.000 A 
ATOM      6  C9  UNL     1     -18.918  55.433 -29.832  0.00  0.00    +0.000 A 
ATOM      7  C10 UNL     1     -21.158  55.184 -32.899  0.00  0.00    +0.000 C 
ENDROOT
BRANCH   1   9
ATOM      8  C1  UNL     1     -17.692  52.223 -28.202  0.00  0.00    +0.000 C 
ATOM      9  C2  UNL     1     -18.078  53.706 -28.160  0.00  0.00    +0.000 C 
ATOM     10  C3  UNL     1     -16.839  54.595 -27.997  0.00  0.00    +0.000 C 
ENDBRANCH   1   9
BRANCH   3  11
ATOM     11  O1  UNL     1     -21.030  52.488 -31.948  0.00  0.00    +0.000 OA
ATOM     12  H14 UNL     1     -20.554  51.803 -32.524  0.00  0.00    +0.000 HD
ENDBRANCH   3  11
TORSDOF 2
ENDMDL
MODEL 7
REMARK VINA RESULT:      -5.5      1.481      4.851
REMARK  Name = .\Carvacrol.pdb
REMARK  5 active torsions:
REMARK  status: ('A' for Active; 'I' for Inactive)
REMARK    1  A    between atoms: C1_1  and  C2_2
REMARK    2  A    between atoms: C2_2  and  C3_3
REMARK    3  A    between atoms: C2_2  and  C4_4
REMARK    4  A    between atoms: C6_6  and  O1_11
REMARK    5  A    between atoms: C7_7  and  C10_10
REMARK                            x       y       z     vdW  Elec       q    Type
REMARK                         _______ _______ _______ _____ _____    ______ ____
ROOT
ATOM      1  C4  UNL     1     -17.575  52.207 -27.570  0.00  0.00    +0.000 A 
ATOM      2  C5  UNL     1     -18.398  52.090 -28.703  0.00  0.00    +0.000 A 
ATOM      3  C6  UNL     1     -18.790  53.227 -29.424  0.00  0.00    +0.000 A 
ATOM      4  C7  UNL     1     -18.358  54.501 -29.015  0.00  0.00    +0.000 A 
ATOM      5  C8  UNL     1     -17.536  54.620 -27.884  0.00  0.00    +0.000 A 
ATOM      6  C9  UNL     1     -17.148  53.485 -27.168  0.00  0.00    +0.000 A 
ATOM      7  C10 UNL     1     -18.774  55.723 -29.783  0.00  0.00    +0.000 C 
ENDROOT
BRANCH   1   9
ATOM      8  C1  UNL     1     -18.346  50.012 -26.611  0.00  0.00    +0.000 C 
ATOM      9  C2  UNL     1     -17.161  50.966 -26.801  0.00  0.00    +0.000 C 
ATOM     10  C3  UNL     1     -15.985  50.258 -27.485  0.00  0.00    +0.000 C 
ENDBRANCH   1   9
BRANCH   3  11
ATOM     11  O1  UNL     1     -19.608  53.095 -30.546  0.00  0.00    +0.000 OA
ATOM     12  H14 UNL     1     -20.117  53.884 -30.929  0.00  0.00    +0.000 HD
ENDBRANCH   3  11
TORSDOF 2
ENDMDL
MODEL 8
REMARK VINA RESULT:      -5.4      2.572      4.489
REMARK  Name = .\Carvacrol.pdb
REMARK  5 active torsions:
REMARK  status: ('A' for Active; 'I' for Inactive)
REMARK    1  A    between atoms: C1_1  and  C2_2
REMARK    2  A    between atoms: C2_2  and  C3_3
REMARK    3  A    between atoms: C2_2  and  C4_4
REMARK    4  A    between atoms: C6_6  and  O1_11
REMARK    5  A    between atoms: C7_7  and  C10_10
REMARK                            x       y       z     vdW  Elec       q    Type
REMARK                         _______ _______ _______ _____ _____    ______ ____
ROOT
ATOM      1  C4  UNL     1     -19.129  54.179 -29.850  0.00  0.00    +0.000 A 
ATOM      2  C5  UNL     1     -19.246  55.395 -30.544  0.00  0.00    +0.000 A 
ATOM      3  C6  UNL     1     -20.029  55.486 -31.704  0.00  0.00    +0.000 A 
ATOM      4  C7  UNL     1     -20.707  54.353 -32.184  0.00  0.00    +0.000 A 
ATOM      5  C8  UNL     1     -20.592  53.136 -31.493  0.00  0.00    +0.000 A 
ATOM      6  C9  UNL     1     -19.812  53.050 -30.338  0.00  0.00    +0.000 A 
ATOM      7  C10 UNL     1     -21.547  54.442 -33.426  0.00  0.00    +0.000 C 
ENDROOT
BRANCH   1   9
ATOM      8  C1  UNL     1     -17.451  52.807 -28.573  0.00  0.00    +0.000 C 
ATOM      9  C2  UNL     1     -18.278  54.098 -28.597  0.00  0.00    +0.000 C 
ATOM     10  C3  UNL     1     -17.379  55.333 -28.458  0.00  0.00    +0.000 C 
ENDBRANCH   1   9
BRANCH   3  11
ATOM     11  O1  UNL     1     -20.134  56.701 -32.382  0.00  0.00    +0.000 OA
ATOM     12  H14 UNL     1     -19.633  56.872 -33.246  0.00  0.00    +0.000 HD
ENDBRANCH   3  11
TORSDOF 2
ENDMDL
MODEL 9
REMARK VINA RESULT:      -5.4      2.568      3.707
REMARK  Name = .\Carvacrol.pdb
REMARK  5 active torsions:
REMARK  status: ('A' for Active; 'I' for Inactive)
REMARK    1  A    between atoms: C1_1  and  C2_2
REMARK    2  A    between atoms: C2_2  and  C3_3
REMARK    3  A    between atoms: C2_2  and  C4_4
REMARK    4  A    between atoms: C6_6  and  O1_11
REMARK    5  A    between atoms: C7_7  and  C10_10
REMARK                            x       y       z     vdW  Elec       q    Type
REMARK                         _______ _______ _______ _____ _____    ______ ____
ROOT
ATOM      1  C4  UNL     1     -20.079  54.401 -31.360  0.00  0.00    +0.000 A 
ATOM      2  C5  UNL     1     -19.517  55.529 -30.739  0.00  0.00    +0.000 A 
ATOM      3  C6  UNL     1     -18.784  55.401 -29.551  0.00  0.00    +0.000 A 
ATOM      4  C7  UNL     1     -18.605  54.134 -28.968  0.00  0.00    +0.000 A 
ATOM      5  C8  UNL     1     -19.166  53.006 -29.587  0.00  0.00    +0.000 A 
ATOM      6  C9  UNL     1     -19.896  53.138 -30.771  0.00  0.00    +0.000 A 
ATOM      7  C10 UNL     1     -17.821  53.990 -27.695  0.00  0.00    +0.000 C 
ENDROOT
BRANCH   1   9
ATOM      8  C1  UNL     1     -22.354  54.243 -32.424  0.00  0.00    +0.000 C 
ATOM      9  C2  UNL     1     -20.870  54.557 -32.646  0.00  0.00    +0.000 C 
ATOM     10  C3  UNL     1     -20.685  55.958 -33.243  0.00  0.00    +0.000 C 
ENDBRANCH   1   9
BRANCH   3  11
ATOM     11  O1  UNL     1     -18.232  56.531 -28.945  0.00  0.00    +0.000 OA
ATOM     12  H14 UNL     1     -17.931  56.521 -27.977  0.00  0.00    +0.000 HD
ENDBRANCH   3  11
TORSDOF 2
ENDMDL
