MODEL 1
REMARK VINA RESULT:      -5.0      0.000      0.000
REMARK  Name = .\Carvacrol.pdb
REMARK  5 active torsions:
REMARK  status: ('A' for Active; 'I' for Inactive)
REMARK    1  A    between atoms: C1_1  and  C2_2
REMARK    2  A    between atoms: C2_2  and  C3_3
REMARK    3  A    between atoms: C2_2  and  C4_4
REMARK    4  A    between atoms: C6_6  and  O1_11
REMARK    5  A    between atoms: C7_7  and  C10_10
REMARK                            x       y       z     vdW  Elec       q    Type
REMARK                         _______ _______ _______ _____ _____    ______ ____
ROOT
ATOM      1  C4  UNL     1      -0.724  36.740  17.191  0.00  0.00    +0.000 A 
ATOM      2  C5  UNL     1      -0.517  35.585  17.965  0.00  0.00    +0.000 A 
ATOM      3  C6  UNL     1       0.781  35.156  18.278  0.00  0.00    +0.000 A 
ATOM      4  C7  UNL     1       1.892  35.883  17.815  0.00  0.00    +0.000 A 
ATOM      5  C8  UNL     1       1.688  37.036  17.042  0.00  0.00    +0.000 A 
ATOM      6  C9  UNL     1       0.393  37.461  16.733  0.00  0.00    +0.000 A 
ATOM      7  C10 UNL     1       3.285  35.428  18.146  0.00  0.00    +0.000 C 
ENDROOT
BRANCH   1   9
ATOM      8  C1  UNL     1      -3.042  37.109  18.095  0.00  0.00    +0.000 C 
ATOM      9  C2  UNL     1      -2.135  37.190  16.862  0.00  0.00    +0.000 C 
ATOM     10  C3  UNL     1      -2.140  38.602  16.264  0.00  0.00    +0.000 C 
ENDBRANCH   1   9
BRANCH   3  11
ATOM     11  O1  UNL     1       0.970  34.007  19.047  0.00  0.00    +0.000 OA
ATOM     12  H14 UNL     1       1.663  33.309  18.798  0.00  0.00    +0.000 HD
ENDBRANCH   3  11
TORSDOF 2
ENDMDL
MODEL 2
REMARK VINA RESULT:      -4.9      2.172      4.227
REMARK  Name = .\Carvacrol.pdb
REMARK  5 active torsions:
REMARK  status: ('A' for Active; 'I' for Inactive)
REMARK    1  A    between atoms: C1_1  and  C2_2
REMARK    2  A    between atoms: C2_2  and  C3_3
REMARK    3  A    between atoms: C2_2  and  C4_4
REMARK    4  A    between atoms: C6_6  and  O1_11
REMARK    5  A    between atoms: C7_7  and  C10_10
REMARK                            x       y       z     vdW  Elec       q    Type
REMARK                         _______ _______ _______ _____ _____    ______ ____
ROOT
ATOM      1  C4  UNL     1      -0.591  35.467  17.021  0.00  0.00    +0.000 A 
ATOM      2  C5  UNL     1       0.444  36.410  16.897  0.00  0.00    +0.000 A 
ATOM      3  C6  UNL     1       0.159  37.783  16.851  0.00  0.00    +0.000 A 
ATOM      4  C7  UNL     1      -1.172  38.227  16.927  0.00  0.00    +0.000 A 
ATOM      5  C8  UNL     1      -2.207  37.287  17.051  0.00  0.00    +0.000 A 
ATOM      6  C9  UNL     1      -1.920  35.920  17.097  0.00  0.00    +0.000 A 
ATOM      7  C10 UNL     1      -1.484  39.695  16.878  0.00  0.00    +0.000 C 
ENDROOT
BRANCH   1   9
ATOM      8  C1  UNL     1      -0.892  33.242  15.884  0.00  0.00    +0.000 C 
ATOM      9  C2  UNL     1      -0.265  33.985  17.070  0.00  0.00    +0.000 C 
ATOM     10  C3  UNL     1       1.249  33.753  17.129  0.00  0.00    +0.000 C 
ENDBRANCH   1   9
BRANCH   3  11
ATOM     11  O1  UNL     1       1.197  38.707  16.727  0.00  0.00    +0.000 OA
ATOM     12  H14 UNL     1       1.018  39.703  16.675  0.00  0.00    +0.000 HD
ENDBRANCH   3  11
TORSDOF 2
ENDMDL
MODEL 3
REMARK VINA RESULT:      -4.9      1.446      2.056
REMARK  Name = .\Carvacrol.pdb
REMARK  5 active torsions:
REMARK  status: ('A' for Active; 'I' for Inactive)
REMARK    1  A    between atoms: C1_1  and  C2_2
REMARK    2  A    between atoms: C2_2  and  C3_3
REMARK    3  A    between atoms: C2_2  and  C4_4
REMARK    4  A    between atoms: C6_6  and  O1_11
REMARK    5  A    between atoms: C7_7  and  C10_10
REMARK                            x       y       z     vdW  Elec       q    Type
REMARK                         _______ _______ _______ _____ _____    ______ ____
ROOT
ATOM      1  C4  UNL     1      -0.762  36.718  17.198  0.00  0.00    +0.000 A 
ATOM      2  C5  UNL     1       0.359  37.447  16.766  0.00  0.00    +0.000 A 
ATOM      3  C6  UNL     1       1.657  37.013  17.075  0.00  0.00    +0.000 A 
ATOM      4  C7  UNL     1       1.845  35.838  17.824  0.00  0.00    +0.000 A 
ATOM      5  C8  UNL     1       0.727  35.109  18.256  0.00  0.00    +0.000 A 
ATOM      6  C9  UNL     1      -0.564  35.544  17.947  0.00  0.00    +0.000 A 
ATOM      7  C10 UNL     1       3.232  35.368  18.158  0.00  0.00    +0.000 C 
ENDROOT
BRANCH   1   9
ATOM      8  C1  UNL     1      -3.082  37.135  18.078  0.00  0.00    +0.000 C 
ATOM      9  C2  UNL     1      -2.159  37.202  16.856  0.00  0.00    +0.000 C 
ATOM     10  C3  UNL     1      -2.126  38.617  16.266  0.00  0.00    +0.000 C 
ENDBRANCH   1   9
BRANCH   3  11
ATOM     11  O1  UNL     1       2.761  37.747  16.640  0.00  0.00    +0.000 OA
ATOM     12  H14 UNL     1       3.347  38.260  17.288  0.00  0.00    +0.000 HD
ENDBRANCH   3  11
TORSDOF 2
ENDMDL
MODEL 4
REMARK VINA RESULT:      -4.8      2.087      4.394
REMARK  Name = .\Carvacrol.pdb
REMARK  5 active torsions:
REMARK  status: ('A' for Active; 'I' for Inactive)
REMARK    1  A    between atoms: C1_1  and  C2_2
REMARK    2  A    between atoms: C2_2  and  C3_3
REMARK    3  A    between atoms: C2_2  and  C4_4
REMARK    4  A    between atoms: C6_6  and  O1_11
REMARK    5  A    between atoms: C7_7  and  C10_10
REMARK                            x       y       z     vdW  Elec       q    Type
REMARK                         _______ _______ _______ _____ _____    ______ ____
ROOT
ATOM      1  C4  UNL     1       0.118  35.217  17.084  0.00  0.00    +0.000 A 
ATOM      2  C5  UNL     1       0.864  36.402  16.962  0.00  0.00    +0.000 A 
ATOM      3  C6  UNL     1       0.222  37.640  16.811  0.00  0.00    +0.000 A 
ATOM      4  C7  UNL     1      -1.182  37.704  16.779  0.00  0.00    +0.000 A 
ATOM      5  C8  UNL     1      -1.929  36.522  16.901  0.00  0.00    +0.000 A 
ATOM      6  C9  UNL     1      -1.286  35.291  17.052  0.00  0.00    +0.000 A 
ATOM      7  C10 UNL     1      -1.876  39.027  16.618  0.00  0.00    +0.000 C 
ENDROOT
BRANCH   1   9
ATOM      8  C1  UNL     1       1.608  33.834  18.566  0.00  0.00    +0.000 C 
ATOM      9  C2  UNL     1       0.828  33.886  17.247  0.00  0.00    +0.000 C 
ATOM     10  C3  UNL     1      -0.158  32.717  17.141  0.00  0.00    +0.000 C 
ENDBRANCH   1   9
BRANCH   3  11
ATOM     11  O1  UNL     1       0.977  38.808  16.691  0.00  0.00    +0.000 OA
ATOM     12  H14 UNL     1       1.201  39.204  15.785  0.00  0.00    +0.000 HD
ENDBRANCH   3  11
TORSDOF 2
ENDMDL
MODEL 5
REMARK VINA RESULT:      -4.8      1.652      4.221
REMARK  Name = .\Carvacrol.pdb
REMARK  5 active torsions:
REMARK  status: ('A' for Active; 'I' for Inactive)
REMARK    1  A    between atoms: C1_1  and  C2_2
REMARK    2  A    between atoms: C2_2  and  C3_3
REMARK    3  A    between atoms: C2_2  and  C4_4
REMARK    4  A    between atoms: C6_6  and  O1_11
REMARK    5  A    between atoms: C7_7  and  C10_10
REMARK                            x       y       z     vdW  Elec       q    Type
REMARK                         _______ _______ _______ _____ _____    ______ ____
ROOT
ATOM      1  C4  UNL     1       0.859  35.953  17.695  0.00  0.00    +0.000 A 
ATOM      2  C5  UNL     1      -0.491  35.692  17.984  0.00  0.00    +0.000 A 
ATOM      3  C6  UNL     1      -1.497  36.573  17.561  0.00  0.00    +0.000 A 
ATOM      4  C7  UNL     1      -1.159  37.732  16.841  0.00  0.00    +0.000 A 
ATOM      5  C8  UNL     1       0.189  37.995  16.552  0.00  0.00    +0.000 A 
ATOM      6  C9  UNL     1       1.188  37.115  16.975  0.00  0.00    +0.000 A 
ATOM      7  C10 UNL     1      -2.231  38.681  16.386  0.00  0.00    +0.000 C 
ENDROOT
BRANCH   1   9
ATOM      8  C1  UNL     1       1.894  33.686  17.354  0.00  0.00    +0.000 C 
ATOM      9  C2  UNL     1       1.935  34.989  18.160  0.00  0.00    +0.000 C 
ATOM     10  C3  UNL     1       3.323  35.636  18.095  0.00  0.00    +0.000 C 
ENDBRANCH   1   9
BRANCH   3  11
ATOM     11  O1  UNL     1      -2.833  36.301  17.856  0.00  0.00    +0.000 OA
ATOM     12  H14 UNL     1      -3.486  36.006  17.139  0.00  0.00    +0.000 HD
ENDBRANCH   3  11
TORSDOF 2
ENDMDL
MODEL 6
REMARK VINA RESULT:      -4.6      2.428      3.321
REMARK  Name = .\Carvacrol.pdb
REMARK  5 active torsions:
REMARK  status: ('A' for Active; 'I' for Inactive)
REMARK    1  A    between atoms: C1_1  and  C2_2
REMARK    2  A    between atoms: C2_2  and  C3_3
REMARK    3  A    between atoms: C2_2  and  C4_4
REMARK    4  A    between atoms: C6_6  and  O1_11
REMARK    5  A    between atoms: C7_7  and  C10_10
REMARK                            x       y       z     vdW  Elec       q    Type
REMARK                         _______ _______ _______ _____ _____    ______ ____
ROOT
ATOM      1  C4  UNL     1      -0.799  35.880  17.508  0.00  0.00    +0.000 A 
ATOM      2  C5  UNL     1      -1.540  35.279  16.476  0.00  0.00    +0.000 A 
ATOM      3  C6  UNL     1      -1.377  33.918  16.177  0.00  0.00    +0.000 A 
ATOM      4  C7  UNL     1      -0.464  33.142  16.912  0.00  0.00    +0.000 A 
ATOM      5  C8  UNL     1       0.276  33.740  17.943  0.00  0.00    +0.000 A 
ATOM      6  C9  UNL     1       0.111  35.095  18.239  0.00  0.00    +0.000 A 
ATOM      7  C10 UNL     1      -0.284  31.684  16.597  0.00  0.00    +0.000 C 
ENDROOT
BRANCH   1   9
ATOM      8  C1  UNL     1      -0.681  38.220  16.592  0.00  0.00    +0.000 C 
ATOM      9  C2  UNL     1      -0.988  37.353  17.819  0.00  0.00    +0.000 C 
ATOM     10  C3  UNL     1      -2.399  37.630  18.352  0.00  0.00    +0.000 C 
ENDBRANCH   1   9
BRANCH   3  11
ATOM     11  O1  UNL     1      -2.119  33.335  15.149  0.00  0.00    +0.000 OA
ATOM     12  H14 UNL     1      -1.684  33.037  14.283  0.00  0.00    +0.000 HD
ENDBRANCH   3  11
TORSDOF 2
ENDMDL
MODEL 7
REMARK VINA RESULT:      -4.5      2.075      4.634
REMARK  Name = .\Carvacrol.pdb
REMARK  5 active torsions:
REMARK  status: ('A' for Active; 'I' for Inactive)
REMARK    1  A    between atoms: C1_1  and  C2_2
REMARK    2  A    between atoms: C2_2  and  C3_3
REMARK    3  A    between atoms: C2_2  and  C4_4
REMARK    4  A    between atoms: C6_6  and  O1_11
REMARK    5  A    between atoms: C7_7  and  C10_10
REMARK                            x       y       z     vdW  Elec       q    Type
REMARK                         _______ _______ _______ _____ _____    ______ ____
ROOT
ATOM      1  C4  UNL     1       1.551  36.610  17.305  0.00  0.00    +0.000 A 
ATOM      2  C5  UNL     1       0.874  37.646  16.640  0.00  0.00    +0.000 A 
ATOM      3  C6  UNL     1      -0.512  37.805  16.784  0.00  0.00    +0.000 A 
ATOM      4  C7  UNL     1      -1.239  36.920  17.600  0.00  0.00    +0.000 A 
ATOM      5  C8  UNL     1      -0.565  35.884  18.266  0.00  0.00    +0.000 A 
ATOM      6  C9  UNL     1       0.816  35.730  18.120  0.00  0.00    +0.000 A 
ATOM      7  C10 UNL     1      -2.724  37.083  17.759  0.00  0.00    +0.000 C 
ENDROOT
BRANCH   1   9
ATOM      8  C1  UNL     1       3.640  35.570  18.244  0.00  0.00    +0.000 C 
ATOM      9  C2  UNL     1       3.051  36.453  17.138  0.00  0.00    +0.000 C 
ATOM     10  C3  UNL     1       3.399  35.906  15.749  0.00  0.00    +0.000 C 
ENDBRANCH   1   9
BRANCH   3  11
ATOM     11  O1  UNL     1      -1.171  38.838  16.117  0.00  0.00    +0.000 OA
ATOM     12  H14 UNL     1      -1.306  38.820  15.113  0.00  0.00    +0.000 HD
ENDBRANCH   3  11
TORSDOF 2
ENDMDL
MODEL 8
REMARK VINA RESULT:      -4.4      1.460      2.304
REMARK  Name = .\Carvacrol.pdb
REMARK  5 active torsions:
REMARK  status: ('A' for Active; 'I' for Inactive)
REMARK    1  A    between atoms: C1_1  and  C2_2
REMARK    2  A    between atoms: C2_2  and  C3_3
REMARK    3  A    between atoms: C2_2  and  C4_4
REMARK    4  A    between atoms: C6_6  and  O1_11
REMARK    5  A    between atoms: C7_7  and  C10_10
REMARK                            x       y       z     vdW  Elec       q    Type
REMARK                         _______ _______ _______ _____ _____    ______ ____
ROOT
ATOM      1  C4  UNL     1      -0.610  36.617  17.343  0.00  0.00    +0.000 A 
ATOM      2  C5  UNL     1       0.690  36.462  17.853  0.00  0.00    +0.000 A 
ATOM      3  C6  UNL     1       1.244  35.186  18.029  0.00  0.00    +0.000 A 
ATOM      4  C7  UNL     1       0.496  34.044  17.693  0.00  0.00    +0.000 A 
ATOM      5  C8  UNL     1      -0.803  34.195  17.183  0.00  0.00    +0.000 A 
ATOM      6  C9  UNL     1      -1.350  35.469  17.009  0.00  0.00    +0.000 A 
ATOM      7  C10 UNL     1       1.082  32.673  17.878  0.00  0.00    +0.000 C 
ENDROOT
BRANCH   1   9
ATOM      8  C1  UNL     1      -2.110  38.062  15.931  0.00  0.00    +0.000 C 
ATOM      9  C2  UNL     1      -1.193  38.005  17.159  0.00  0.00    +0.000 C 
ATOM     10  C3  UNL     1      -1.932  38.466  18.421  0.00  0.00    +0.000 C 
ENDBRANCH   1   9
BRANCH   3  11
ATOM     11  O1  UNL     1       2.535  35.048  18.538  0.00  0.00    +0.000 OA
ATOM     12  H14 UNL     1       3.058  35.846  18.883  0.00  0.00    +0.000 HD
ENDBRANCH   3  11
TORSDOF 2
ENDMDL
MODEL 9
REMARK VINA RESULT:      -4.3      1.220      4.357
REMARK  Name = .\Carvacrol.pdb
REMARK  5 active torsions:
REMARK  status: ('A' for Active; 'I' for Inactive)
REMARK    1  A    between atoms: C1_1  and  C2_2
REMARK    2  A    between atoms: C2_2  and  C3_3
REMARK    3  A    between atoms: C2_2  and  C4_4
REMARK    4  A    between atoms: C6_6  and  O1_11
REMARK    5  A    between atoms: C7_7  and  C10_10
REMARK                            x       y       z     vdW  Elec       q    Type
REMARK                         _______ _______ _______ _____ _____    ______ ____
ROOT
ATOM      1  C4  UNL     1       2.354  36.332  17.380  0.00  0.00    +0.000 A 
ATOM      2  C5  UNL     1       1.613  35.353  18.063  0.00  0.00    +0.000 A 
ATOM      3  C6  UNL     1       0.214  35.431  18.131  0.00  0.00    +0.000 A 
ATOM      4  C7  UNL     1      -0.460  36.498  17.511  0.00  0.00    +0.000 A 
ATOM      5  C8  UNL     1       0.278  37.477  16.829  0.00  0.00    +0.000 A 
ATOM      6  C9  UNL     1       1.671  37.396  16.764  0.00  0.00    +0.000 A 
ATOM      7  C10 UNL     1      -1.958  36.589  17.580  0.00  0.00    +0.000 C 
ENDROOT
BRANCH   1   9
ATOM      8  C1  UNL     1       4.488  37.547  16.830  0.00  0.00    +0.000 C 
ATOM      9  C2  UNL     1       3.867  36.232  17.317  0.00  0.00    +0.000 C 
ATOM     10  C3  UNL     1       4.451  35.814  18.672  0.00  0.00    +0.000 C 
ENDBRANCH   1   9
BRANCH   3  11
ATOM     11  O1  UNL     1      -0.508  34.452  18.813  0.00  0.00    +0.000 OA
ATOM     12  H14 UNL     1      -0.091  33.563  19.066  0.00  0.00    +0.000 HD
ENDBRANCH   3  11
TORSDOF 2
ENDMDL
