MODEL 1
REMARK VINA RESULT:      -3.8      0.000      0.000
REMARK  Name = .\Carvone.pdb
REMARK  3 active torsions:
REMARK  status: ('A' for Active; 'I' for Inactive)
REMARK    1  A    between atoms: C1_1  and  C2_2
REMARK    2  A    between atoms: C7_8  and  C8_9
REMARK    3  A    between atoms: C7_8  and  C9_10
REMARK                            x       y       z     vdW  Elec       q    Type
REMARK                         _______ _______ _______ _____ _____    ______ ____
ROOT
ATOM      1  C1  UNL     1     -26.405  36.299  -9.811  0.00  0.00    +0.000 C 
ATOM      2  C2  UNL     1     -25.955  37.726 -10.007  0.00  0.00    +0.000 C 
ATOM      3  C3  UNL     1     -24.746  38.061  -9.531  0.00  0.00    +0.000 C 
ATOM      4  C4  UNL     1     -24.223  39.421  -9.674  0.00  0.00    +0.000 C 
ATOM      5  O1  UNL     1     -23.086  39.713  -9.219  0.00  0.00    +0.000 OA
ATOM      6  C5  UNL     1     -25.027  40.438 -10.346  0.00  0.00    +0.000 C 
ATOM      7  C6  UNL     1     -26.231  40.136 -10.830  0.00  0.00    +0.000 C 
ATOM      8  C7  UNL     1     -26.855  38.749 -10.727  0.00  0.00    +0.000 C 
ATOM      9  C8  UNL     1     -28.182  38.900  -9.957  0.00  0.00    +0.000 C 
ATOM     10  C9  UNL     1     -27.138  38.266 -12.163  0.00  0.00    +0.000 C 
ENDROOT
TORSDOF 0
ENDMDL
MODEL 2
REMARK VINA RESULT:      -3.5      1.129      2.572
REMARK  Name = .\Carvone.pdb
REMARK  3 active torsions:
REMARK  status: ('A' for Active; 'I' for Inactive)
REMARK    1  A    between atoms: C1_1  and  C2_2
REMARK    2  A    between atoms: C7_8  and  C8_9
REMARK    3  A    between atoms: C7_8  and  C9_10
REMARK                            x       y       z     vdW  Elec       q    Type
REMARK                         _______ _______ _______ _____ _____    ______ ____
ROOT
ATOM      1  C1  UNL     1     -28.036  38.989  -9.988  0.00  0.00    +0.000 C 
ATOM      2  C2  UNL     1     -26.535  38.864  -9.897  0.00  0.00    +0.000 C 
ATOM      3  C3  UNL     1     -25.820  40.000  -9.916  0.00  0.00    +0.000 C 
ATOM      4  C4  UNL     1     -24.359  39.981  -9.833  0.00  0.00    +0.000 C 
ATOM      5  O1  UNL     1     -23.709  41.060  -9.852  0.00  0.00    +0.000 OA
ATOM      6  C5  UNL     1     -23.657  38.705  -9.728  0.00  0.00    +0.000 C 
ATOM      7  C6  UNL     1     -24.338  37.559  -9.707  0.00  0.00    +0.000 C 
ATOM      8  C7  UNL     1     -25.859  37.483  -9.788  0.00  0.00    +0.000 C 
ATOM      9  C8  UNL     1     -26.209  36.638 -11.029  0.00  0.00    +0.000 C 
ATOM     10  C9  UNL     1     -26.351  36.768  -8.515  0.00  0.00    +0.000 C 
ENDROOT
TORSDOF 0
ENDMDL
MODEL 3
REMARK VINA RESULT:      -3.3      2.125      3.244
REMARK  Name = .\Carvone.pdb
REMARK  3 active torsions:
REMARK  status: ('A' for Active; 'I' for Inactive)
REMARK    1  A    between atoms: C1_1  and  C2_2
REMARK    2  A    between atoms: C7_8  and  C8_9
REMARK    3  A    between atoms: C7_8  and  C9_10
REMARK                            x       y       z     vdW  Elec       q    Type
REMARK                         _______ _______ _______ _____ _____    ______ ____
ROOT
ATOM      1  C1  UNL     1     -24.847  36.503  -8.713  0.00  0.00    +0.000 C 
ATOM      2  C2  UNL     1     -25.480  37.678  -9.419  0.00  0.00    +0.000 C 
ATOM      3  C3  UNL     1     -26.809  37.824  -9.301  0.00  0.00    +0.000 C 
ATOM      4  C4  UNL     1     -27.512  38.932  -9.949  0.00  0.00    +0.000 C 
ATOM      5  O1  UNL     1     -28.760  39.049  -9.824  0.00  0.00    +0.000 OA
ATOM      6  C5  UNL     1     -26.761  39.901 -10.740  0.00  0.00    +0.000 C 
ATOM      7  C6  UNL     1     -25.440  39.784 -10.876  0.00  0.00    +0.000 C 
ATOM      8  C7  UNL     1     -24.625  38.664 -10.239  0.00  0.00    +0.000 C 
ATOM      9  C8  UNL     1     -23.917  37.907 -11.379  0.00  0.00    +0.000 C 
ATOM     10  C9  UNL     1     -23.578  39.324  -9.321  0.00  0.00    +0.000 C 
ENDROOT
TORSDOF 0
ENDMDL
MODEL 4
REMARK VINA RESULT:      -3.2      1.187      2.791
REMARK  Name = .\Carvone.pdb
REMARK  3 active torsions:
REMARK  status: ('A' for Active; 'I' for Inactive)
REMARK    1  A    between atoms: C1_1  and  C2_2
REMARK    2  A    between atoms: C7_8  and  C8_9
REMARK    3  A    between atoms: C7_8  and  C9_10
REMARK                            x       y       z     vdW  Elec       q    Type
REMARK                         _______ _______ _______ _____ _____    ______ ____
ROOT
ATOM      1  C1  UNL     1     -25.462  40.661 -10.596  0.00  0.00    +0.000 C 
ATOM      2  C2  UNL     1     -25.337  39.203 -10.226  0.00  0.00    +0.000 C 
ATOM      3  C3  UNL     1     -24.163  38.794  -9.721  0.00  0.00    +0.000 C 
ATOM      4  C4  UNL     1     -23.947  37.400  -9.332  0.00  0.00    +0.000 C 
ATOM      5  O1  UNL     1     -22.836  37.039  -8.860  0.00  0.00    +0.000 OA
ATOM      6  C5  UNL     1     -25.025  36.428  -9.494  0.00  0.00    +0.000 C 
ATOM      7  C6  UNL     1     -26.203  36.803  -9.991  0.00  0.00    +0.000 C 
ATOM      8  C7  UNL     1     -26.518  38.232 -10.423  0.00  0.00    +0.000 C 
ATOM      9  C8  UNL     1     -26.903  38.185 -11.914  0.00  0.00    +0.000 C 
ATOM     10  C9  UNL     1     -27.722  38.708  -9.587  0.00  0.00    +0.000 C 
ENDROOT
TORSDOF 0
ENDMDL
MODEL 5
REMARK VINA RESULT:      -3.2      2.091      3.742
REMARK  Name = .\Carvone.pdb
REMARK  3 active torsions:
REMARK  status: ('A' for Active; 'I' for Inactive)
REMARK    1  A    between atoms: C1_1  and  C2_2
REMARK    2  A    between atoms: C7_8  and  C8_9
REMARK    3  A    between atoms: C7_8  and  C9_10
REMARK                            x       y       z     vdW  Elec       q    Type
REMARK                         _______ _______ _______ _____ _____    ______ ____
ROOT
ATOM      1  C1  UNL     1     -24.038  40.620  -9.841  0.00  0.00    +0.000 C 
ATOM      2  C2  UNL     1     -25.026  39.486  -9.975  0.00  0.00    +0.000 C 
ATOM      3  C3  UNL     1     -26.330  39.794  -9.895  0.00  0.00    +0.000 C 
ATOM      4  C4  UNL     1     -27.363  38.763 -10.014  0.00  0.00    +0.000 C 
ATOM      5  O1  UNL     1     -28.580  39.075  -9.936  0.00  0.00    +0.000 OA
ATOM      6  C5  UNL     1     -26.974  37.371 -10.223  0.00  0.00    +0.000 C 
ATOM      7  C6  UNL     1     -25.687  37.034 -10.307  0.00  0.00    +0.000 C 
ATOM      8  C7  UNL     1     -24.546  38.038 -10.195  0.00  0.00    +0.000 C 
ATOM      9  C8  UNL     1     -23.667  37.601  -9.007  0.00  0.00    +0.000 C 
ATOM     10  C9  UNL     1     -23.734  37.957 -11.502  0.00  0.00    +0.000 C 
ENDROOT
TORSDOF 0
ENDMDL
MODEL 6
REMARK VINA RESULT:      -3.1      2.379      3.954
REMARK  Name = .\Carvone.pdb
REMARK  3 active torsions:
REMARK  status: ('A' for Active; 'I' for Inactive)
REMARK    1  A    between atoms: C1_1  and  C2_2
REMARK    2  A    between atoms: C7_8  and  C8_9
REMARK    3  A    between atoms: C7_8  and  C9_10
REMARK                            x       y       z     vdW  Elec       q    Type
REMARK                         _______ _______ _______ _____ _____    ______ ____
ROOT
ATOM      1  C1  UNL     1     -25.927  40.256 -10.941  0.00  0.00    +0.000 C 
ATOM      2  C2  UNL     1     -26.661  39.094 -10.317  0.00  0.00    +0.000 C 
ATOM      3  C3  UNL     1     -27.887  39.332  -9.825  0.00  0.00    +0.000 C 
ATOM      4  C4  UNL     1     -28.676  38.269  -9.202  0.00  0.00    +0.000 C 
ATOM      5  O1  UNL     1     -29.825  38.516  -8.748  0.00  0.00    +0.000 OA
ATOM      6  C5  UNL     1     -28.126  36.920  -9.108  0.00  0.00    +0.000 C 
ATOM      7  C6  UNL     1     -26.911  36.651  -9.587  0.00  0.00    +0.000 C 
ATOM      8  C7  UNL     1     -26.020  37.694 -10.252  0.00  0.00    +0.000 C 
ATOM      9  C8  UNL     1     -24.712  37.764  -9.438  0.00  0.00    +0.000 C 
ATOM     10  C9  UNL     1     -25.720  37.198 -11.680  0.00  0.00    +0.000 C 
ENDROOT
TORSDOF 0
ENDMDL
MODEL 7
REMARK VINA RESULT:      -3.0      2.161      3.729
REMARK  Name = .\Carvone.pdb
REMARK  3 active torsions:
REMARK  status: ('A' for Active; 'I' for Inactive)
REMARK    1  A    between atoms: C1_1  and  C2_2
REMARK    2  A    between atoms: C7_8  and  C8_9
REMARK    3  A    between atoms: C7_8  and  C9_10
REMARK                            x       y       z     vdW  Elec       q    Type
REMARK                         _______ _______ _______ _____ _____    ______ ____
ROOT
ATOM      1  C1  UNL     1     -26.309  39.963 -11.088  0.00  0.00    +0.000 C 
ATOM      2  C2  UNL     1     -25.899  38.793 -10.227  0.00  0.00    +0.000 C 
ATOM      3  C3  UNL     1     -26.879  38.090  -9.637  0.00  0.00    +0.000 C 
ATOM      4  C4  UNL     1     -26.581  36.939  -8.783  0.00  0.00    +0.000 C 
ATOM      5  O1  UNL     1     -27.516  36.294  -8.241  0.00  0.00    +0.000 OA
ATOM      6  C5  UNL     1     -25.193  36.542  -8.564  0.00  0.00    +0.000 C 
ATOM      7  C6  UNL     1     -24.198  37.219  -9.136  0.00  0.00    +0.000 C 
ATOM      8  C7  UNL     1     -24.414  38.428 -10.038  0.00  0.00    +0.000 C 
ATOM      9  C8  UNL     1     -23.669  39.617  -9.398  0.00  0.00    +0.000 C 
ATOM     10  C9  UNL     1     -23.787  38.097 -11.407  0.00  0.00    +0.000 C 
ENDROOT
TORSDOF 0
ENDMDL
MODEL 8
REMARK VINA RESULT:      -3.0      2.229      3.329
REMARK  Name = .\Carvone.pdb
REMARK  3 active torsions:
REMARK  status: ('A' for Active; 'I' for Inactive)
REMARK    1  A    between atoms: C1_1  and  C2_2
REMARK    2  A    between atoms: C7_8  and  C8_9
REMARK    3  A    between atoms: C7_8  and  C9_10
REMARK                            x       y       z     vdW  Elec       q    Type
REMARK                         _______ _______ _______ _____ _____    ______ ____
ROOT
ATOM      1  C1  UNL     1     -24.069  37.642 -10.090  0.00  0.00    +0.000 C 
ATOM      2  C2  UNL     1     -25.513  37.746  -9.665  0.00  0.00    +0.000 C 
ATOM      3  C3  UNL     1     -25.967  36.828  -8.795  0.00  0.00    +0.000 C 
ATOM      4  C4  UNL     1     -27.353  36.847  -8.325  0.00  0.00    +0.000 C 
ATOM      5  O1  UNL     1     -27.756  35.976  -7.509  0.00  0.00    +0.000 OA
ATOM      6  C5  UNL     1     -28.266  37.879  -8.806  0.00  0.00    +0.000 C 
ATOM      7  C6  UNL     1     -27.846  38.804  -9.669  0.00  0.00    +0.000 C 
ATOM      8  C7  UNL     1     -26.423  38.863 -10.212  0.00  0.00    +0.000 C 
ATOM      9  C8  UNL     1     -26.514  38.748 -11.747  0.00  0.00    +0.000 C 
ATOM     10  C9  UNL     1     -25.842  40.237  -9.826  0.00  0.00    +0.000 C 
ENDROOT
TORSDOF 0
ENDMDL
MODEL 9
REMARK VINA RESULT:      -2.9      1.816      2.752
REMARK  Name = .\Carvone.pdb
REMARK  3 active torsions:
REMARK  status: ('A' for Active; 'I' for Inactive)
REMARK    1  A    between atoms: C1_1  and  C2_2
REMARK    2  A    between atoms: C7_8  and  C8_9
REMARK    3  A    between atoms: C7_8  and  C9_10
REMARK                            x       y       z     vdW  Elec       q    Type
REMARK                         _______ _______ _______ _____ _____    ______ ____
ROOT
ATOM      1  C1  UNL     1     -28.963  38.768  -9.799  0.00  0.00    +0.000 C 
ATOM      2  C2  UNL     1     -27.557  38.221  -9.857  0.00  0.00    +0.000 C 
ATOM      3  C3  UNL     1     -27.164  37.426  -8.850  0.00  0.00    +0.000 C 
ATOM      4  C4  UNL     1     -25.819  36.849  -8.818  0.00  0.00    +0.000 C 
ATOM      5  O1  UNL     1     -25.472  36.105  -7.863  0.00  0.00    +0.000 OA
ATOM      6  C5  UNL     1     -24.881  37.139  -9.899  0.00  0.00    +0.000 C 
ATOM      7  C6  UNL     1     -25.242  37.924 -10.914  0.00  0.00    +0.000 C 
ATOM      8  C7  UNL     1     -26.619  38.568 -11.030  0.00  0.00    +0.000 C 
ATOM      9  C8  UNL     1     -26.408  40.094 -11.087  0.00  0.00    +0.000 C 
ATOM     10  C9  UNL     1     -27.244  38.079 -12.351  0.00  0.00    +0.000 C 
ENDROOT
TORSDOF 0
ENDMDL
