MODEL 1
REMARK VINA RESULT:      -3.8      0.000      0.000
REMARK  Name = .\Carvacrol.pdb
REMARK  5 active torsions:
REMARK  status: ('A' for Active; 'I' for Inactive)
REMARK    1  A    between atoms: C1_1  and  C2_2
REMARK    2  A    between atoms: C2_2  and  C3_3
REMARK    3  A    between atoms: C2_2  and  C4_4
REMARK    4  A    between atoms: C6_6  and  O1_11
REMARK    5  A    between atoms: C7_7  and  C10_10
REMARK                            x       y       z     vdW  Elec       q    Type
REMARK                         _______ _______ _______ _____ _____    ______ ____
ROOT
ATOM      1  C4  UNL     1     -18.271  71.098 125.823  0.00  0.00    +0.000 A 
ATOM      2  C5  UNL     1     -18.349  72.374 126.407  0.00  0.00    +0.000 A 
ATOM      3  C6  UNL     1     -17.324  73.313 126.216  0.00  0.00    +0.000 A 
ATOM      4  C7  UNL     1     -16.204  72.981 125.434  0.00  0.00    +0.000 A 
ATOM      5  C8  UNL     1     -16.125  71.707 124.849  0.00  0.00    +0.000 A 
ATOM      6  C9  UNL     1     -17.148  70.775 125.041  0.00  0.00    +0.000 A 
ATOM      7  C10 UNL     1     -15.103  73.981 125.225  0.00  0.00    +0.000 C 
ENDROOT
BRANCH   1   9
ATOM      8  C1  UNL     1     -20.754  70.707 125.704  0.00  0.00    +0.000 C 
ATOM      9  C2  UNL     1     -19.389  70.095 126.040  0.00  0.00    +0.000 C 
ATOM     10  C3  UNL     1     -19.145  68.813 125.234  0.00  0.00    +0.000 C 
ENDBRANCH   1   9
BRANCH   3  11
ATOM     11  O1  UNL     1     -17.415  74.575 126.803  0.00  0.00    +0.000 OA
ATOM     12  H14 UNL     1     -16.772  75.321 126.563  0.00  0.00    +0.000 HD
ENDBRANCH   3  11
TORSDOF 2
ENDMDL
MODEL 2
REMARK VINA RESULT:      -3.8      2.163      3.981
REMARK  Name = .\Carvacrol.pdb
REMARK  5 active torsions:
REMARK  status: ('A' for Active; 'I' for Inactive)
REMARK    1  A    between atoms: C1_1  and  C2_2
REMARK    2  A    between atoms: C2_2  and  C3_3
REMARK    3  A    between atoms: C2_2  and  C4_4
REMARK    4  A    between atoms: C6_6  and  O1_11
REMARK    5  A    between atoms: C7_7  and  C10_10
REMARK                            x       y       z     vdW  Elec       q    Type
REMARK                         _______ _______ _______ _____ _____    ______ ____
ROOT
ATOM      1  C4  UNL     1     -16.336  69.419 125.190  0.00  0.00    +0.000 A 
ATOM      2  C5  UNL     1     -16.261  70.812 125.027  0.00  0.00    +0.000 A 
ATOM      3  C6  UNL     1     -17.423  71.598 125.036  0.00  0.00    +0.000 A 
ATOM      4  C7  UNL     1     -18.679  70.991 125.210  0.00  0.00    +0.000 A 
ATOM      5  C8  UNL     1     -18.756  69.600 125.374  0.00  0.00    +0.000 A 
ATOM      6  C9  UNL     1     -17.596  68.821 125.364  0.00  0.00    +0.000 A 
ATOM      7  C10 UNL     1     -19.928  71.826 125.221  0.00  0.00    +0.000 C 
ENDROOT
BRANCH   1   9
ATOM      8  C1  UNL     1     -13.935  69.312 124.446  0.00  0.00    +0.000 C 
ATOM      9  C2  UNL     1     -15.068  68.584 125.178  0.00  0.00    +0.000 C 
ATOM     10  C3  UNL     1     -14.648  68.195 126.600  0.00  0.00    +0.000 C 
ENDBRANCH   1   9
BRANCH   3  11
ATOM     11  O1  UNL     1     -17.333  72.980 124.871  0.00  0.00    +0.000 OA
ATOM     12  H14 UNL     1     -18.083  73.600 125.158  0.00  0.00    +0.000 HD
ENDBRANCH   3  11
TORSDOF 2
ENDMDL
MODEL 3
REMARK VINA RESULT:      -3.8      1.709      2.570
REMARK  Name = .\Carvacrol.pdb
REMARK  5 active torsions:
REMARK  status: ('A' for Active; 'I' for Inactive)
REMARK    1  A    between atoms: C1_1  and  C2_2
REMARK    2  A    between atoms: C2_2  and  C3_3
REMARK    3  A    between atoms: C2_2  and  C4_4
REMARK    4  A    between atoms: C6_6  and  O1_11
REMARK    5  A    between atoms: C7_7  and  C10_10
REMARK                            x       y       z     vdW  Elec       q    Type
REMARK                         _______ _______ _______ _____ _____    ______ ____
ROOT
ATOM      1  C4  UNL     1     -19.124  70.770 125.274  0.00  0.00    +0.000 A 
ATOM      2  C5  UNL     1     -18.111  71.743 125.315  0.00  0.00    +0.000 A 
ATOM      3  C6  UNL     1     -16.772  71.393 125.089  0.00  0.00    +0.000 A 
ATOM      4  C7  UNL     1     -16.432  70.056 124.818  0.00  0.00    +0.000 A 
ATOM      5  C8  UNL     1     -17.442  69.082 124.776  0.00  0.00    +0.000 A 
ATOM      6  C9  UNL     1     -18.775  69.436 125.002  0.00  0.00    +0.000 A 
ATOM      7  C10 UNL     1     -15.000  69.673 124.575  0.00  0.00    +0.000 C 
ENDROOT
BRANCH   1   9
ATOM      8  C1  UNL     1     -21.162  71.879 124.300  0.00  0.00    +0.000 C 
ATOM      9  C2  UNL     1     -20.568  71.167 125.521  0.00  0.00    +0.000 C 
ATOM     10  C3  UNL     1     -21.415  69.953 125.919  0.00  0.00    +0.000 C 
ENDBRANCH   1   9
BRANCH   3  11
ATOM     11  O1  UNL     1     -15.777  72.370 125.134  0.00  0.00    +0.000 OA
ATOM     12  H14 UNL     1     -16.002  73.355 125.214  0.00  0.00    +0.000 HD
ENDBRANCH   3  11
TORSDOF 2
ENDMDL
MODEL 4
REMARK VINA RESULT:      -3.7      1.814      3.011
REMARK  Name = .\Carvacrol.pdb
REMARK  5 active torsions:
REMARK  status: ('A' for Active; 'I' for Inactive)
REMARK    1  A    between atoms: C1_1  and  C2_2
REMARK    2  A    between atoms: C2_2  and  C3_3
REMARK    3  A    between atoms: C2_2  and  C4_4
REMARK    4  A    between atoms: C6_6  and  O1_11
REMARK    5  A    between atoms: C7_7  and  C10_10
REMARK                            x       y       z     vdW  Elec       q    Type
REMARK                         _______ _______ _______ _____ _____    ______ ____
ROOT
ATOM      1  C4  UNL     1     -16.684  70.047 125.265  0.00  0.00    +0.000 A 
ATOM      2  C5  UNL     1     -16.075  71.209 124.762  0.00  0.00    +0.000 A 
ATOM      3  C6  UNL     1     -16.377  72.467 125.304  0.00  0.00    +0.000 A 
ATOM      4  C7  UNL     1     -17.298  72.574 126.360  0.00  0.00    +0.000 A 
ATOM      5  C8  UNL     1     -17.908  71.415 126.864  0.00  0.00    +0.000 A 
ATOM      6  C9  UNL     1     -17.604  70.163 126.322  0.00  0.00    +0.000 A 
ATOM      7  C10 UNL     1     -17.627  73.919 126.945  0.00  0.00    +0.000 C 
ENDROOT
BRANCH   1   9
ATOM      8  C1  UNL     1     -17.223  68.394 123.446  0.00  0.00    +0.000 C 
ATOM      9  C2  UNL     1     -16.346  68.693 124.668  0.00  0.00    +0.000 C 
ATOM     10  C3  UNL     1     -14.857  68.601 124.316  0.00  0.00    +0.000 C 
ENDBRANCH   1   9
BRANCH   3  11
ATOM     11  O1  UNL     1     -15.765  73.612 124.793  0.00  0.00    +0.000 OA
ATOM     12  H14 UNL     1     -15.359  74.314 125.402  0.00  0.00    +0.000 HD
ENDBRANCH   3  11
TORSDOF 2
ENDMDL
MODEL 5
REMARK VINA RESULT:      -3.7      1.894      2.730
REMARK  Name = .\Carvacrol.pdb
REMARK  5 active torsions:
REMARK  status: ('A' for Active; 'I' for Inactive)
REMARK    1  A    between atoms: C1_1  and  C2_2
REMARK    2  A    between atoms: C2_2  and  C3_3
REMARK    3  A    between atoms: C2_2  and  C4_4
REMARK    4  A    between atoms: C6_6  and  O1_11
REMARK    5  A    between atoms: C7_7  and  C10_10
REMARK                            x       y       z     vdW  Elec       q    Type
REMARK                         _______ _______ _______ _____ _____    ______ ____
ROOT
ATOM      1  C4  UNL     1     -18.892  69.670 124.784  0.00  0.00    +0.000 A 
ATOM      2  C5  UNL     1     -17.511  69.729 124.535  0.00  0.00    +0.000 A 
ATOM      3  C6  UNL     1     -16.787  70.903 124.786  0.00  0.00    +0.000 A 
ATOM      4  C7  UNL     1     -17.444  72.039 125.291  0.00  0.00    +0.000 A 
ATOM      5  C8  UNL     1     -18.824  71.983 125.540  0.00  0.00    +0.000 A 
ATOM      6  C9  UNL     1     -19.541  70.811 125.289  0.00  0.00    +0.000 A 
ATOM      7  C10 UNL     1     -16.675  73.301 125.561  0.00  0.00    +0.000 C 
ENDROOT
BRANCH   1   9
ATOM      8  C1  UNL     1     -20.792  68.195 125.523  0.00  0.00    +0.000 C 
ATOM      9  C2  UNL     1     -19.660  68.391 124.507  0.00  0.00    +0.000 C 
ATOM     10  C3  UNL     1     -20.197  68.368 123.071  0.00  0.00    +0.000 C 
ENDBRANCH   1   9
BRANCH   3  11
ATOM     11  O1  UNL     1     -15.415  70.946 124.533  0.00  0.00    +0.000 OA
ATOM     12  H14 UNL     1     -14.997  70.416 123.776  0.00  0.00    +0.000 HD
ENDBRANCH   3  11
TORSDOF 2
ENDMDL
MODEL 6
REMARK VINA RESULT:      -3.6      2.150      4.530
REMARK  Name = .\Carvacrol.pdb
REMARK  5 active torsions:
REMARK  status: ('A' for Active; 'I' for Inactive)
REMARK    1  A    between atoms: C1_1  and  C2_2
REMARK    2  A    between atoms: C2_2  and  C3_3
REMARK    3  A    between atoms: C2_2  and  C4_4
REMARK    4  A    between atoms: C6_6  and  O1_11
REMARK    5  A    between atoms: C7_7  and  C10_10
REMARK                            x       y       z     vdW  Elec       q    Type
REMARK                         _______ _______ _______ _____ _____    ______ ____
ROOT
ATOM      1  C4  UNL     1     -17.416  72.207 125.278  0.00  0.00    +0.000 A 
ATOM      2  C5  UNL     1     -16.532  71.241 124.768  0.00  0.00    +0.000 A 
ATOM      3  C6  UNL     1     -16.975  69.938 124.494  0.00  0.00    +0.000 A 
ATOM      4  C7  UNL     1     -18.316  69.589 124.730  0.00  0.00    +0.000 A 
ATOM      5  C8  UNL     1     -19.201  70.553 125.239  0.00  0.00    +0.000 A 
ATOM      6  C9  UNL     1     -18.756  71.849 125.510  0.00  0.00    +0.000 A 
ATOM      7  C10 UNL     1     -18.798  68.196 124.439  0.00  0.00    +0.000 C 
ENDROOT
BRANCH   1   9
ATOM      8  C1  UNL     1     -17.256  74.030 127.004  0.00  0.00    +0.000 C 
ATOM      9  C2  UNL     1     -16.919  73.611 125.568  0.00  0.00    +0.000 C 
ATOM     10  C3  UNL     1     -15.415  73.734 125.296  0.00  0.00    +0.000 C 
ENDBRANCH   1   9
BRANCH   3  11
ATOM     11  O1  UNL     1     -16.086  68.989 123.990  0.00  0.00    +0.000 OA
ATOM     12  H14 UNL     1     -16.356  68.345 123.255  0.00  0.00    +0.000 HD
ENDBRANCH   3  11
TORSDOF 2
ENDMDL
MODEL 7
REMARK VINA RESULT:      -3.3      2.244      4.728
REMARK  Name = .\Carvacrol.pdb
REMARK  5 active torsions:
REMARK  status: ('A' for Active; 'I' for Inactive)
REMARK    1  A    between atoms: C1_1  and  C2_2
REMARK    2  A    between atoms: C2_2  and  C3_3
REMARK    3  A    between atoms: C2_2  and  C4_4
REMARK    4  A    between atoms: C6_6  and  O1_11
REMARK    5  A    between atoms: C7_7  and  C10_10
REMARK                            x       y       z     vdW  Elec       q    Type
REMARK                         _______ _______ _______ _____ _____    ______ ____
ROOT
ATOM      1  C4  UNL     1     -18.507  71.523 125.767  0.00  0.00    +0.000 A 
ATOM      2  C5  UNL     1     -18.218  70.497 126.684  0.00  0.00    +0.000 A 
ATOM      3  C6  UNL     1     -19.157  69.491 126.952  0.00  0.00    +0.000 A 
ATOM      4  C7  UNL     1     -20.403  69.502 126.301  0.00  0.00    +0.000 A 
ATOM      5  C8  UNL     1     -20.694  70.525 125.385  0.00  0.00    +0.000 A 
ATOM      6  C9  UNL     1     -19.755  71.525 125.120  0.00  0.00    +0.000 A 
ATOM      7  C10 UNL     1     -21.414  68.427 126.583  0.00  0.00    +0.000 C 
ENDROOT
BRANCH   1   9
ATOM      8  C1  UNL     1     -17.325  73.542 126.692  0.00  0.00    +0.000 C 
ATOM      9  C2  UNL     1     -17.479  72.604 125.489  0.00  0.00    +0.000 C 
ATOM     10  C3  UNL     1     -16.130  71.995 125.087  0.00  0.00    +0.000 C 
ENDBRANCH   1   9
BRANCH   3  11
ATOM     11  O1  UNL     1     -18.856  68.480 127.865  0.00  0.00    +0.000 OA
ATOM     12  H14 UNL     1     -18.816  67.506 127.585  0.00  0.00    +0.000 HD
ENDBRANCH   3  11
TORSDOF 2
ENDMDL
MODEL 8
REMARK VINA RESULT:      -3.3      2.862      4.522
REMARK  Name = .\Carvacrol.pdb
REMARK  5 active torsions:
REMARK  status: ('A' for Active; 'I' for Inactive)
REMARK    1  A    between atoms: C1_1  and  C2_2
REMARK    2  A    between atoms: C2_2  and  C3_3
REMARK    3  A    between atoms: C2_2  and  C4_4
REMARK    4  A    between atoms: C6_6  and  O1_11
REMARK    5  A    between atoms: C7_7  and  C10_10
REMARK                            x       y       z     vdW  Elec       q    Type
REMARK                         _______ _______ _______ _____ _____    ______ ____
ROOT
ATOM      1  C4  UNL     1     -16.286  69.270 125.227  0.00  0.00    +0.000 A 
ATOM      2  C5  UNL     1     -17.526  68.624 125.368  0.00  0.00    +0.000 A 
ATOM      3  C6  UNL     1     -18.720  69.360 125.372  0.00  0.00    +0.000 A 
ATOM      4  C7  UNL     1     -18.684  70.758 125.235  0.00  0.00    +0.000 A 
ATOM      5  C8  UNL     1     -17.447  71.405 125.094  0.00  0.00    +0.000 A 
ATOM      6  C9  UNL     1     -16.259  70.669 125.090  0.00  0.00    +0.000 A 
ATOM      7  C10 UNL     1     -19.959  71.553 125.239  0.00  0.00    +0.000 C 
ENDROOT
BRANCH   1   9
ATOM      8  C1  UNL     1     -13.919  69.142 124.385  0.00  0.00    +0.000 C 
ATOM      9  C2  UNL     1     -15.004  68.458 125.225  0.00  0.00    +0.000 C 
ATOM     10  C3  UNL     1     -14.513  68.195 126.653  0.00  0.00    +0.000 C 
ENDBRANCH   1   9
BRANCH   3  11
ATOM     11  O1  UNL     1     -19.944  68.705 125.514  0.00  0.00    +0.000 OA
ATOM     12  H14 UNL     1     -20.797  69.211 125.721  0.00  0.00    +0.000 HD
ENDBRANCH   3  11
TORSDOF 2
ENDMDL
MODEL 9
REMARK VINA RESULT:      -3.1      3.086      3.463
REMARK  Name = .\Carvacrol.pdb
REMARK  5 active torsions:
REMARK  status: ('A' for Active; 'I' for Inactive)
REMARK    1  A    between atoms: C1_1  and  C2_2
REMARK    2  A    between atoms: C2_2  and  C3_3
REMARK    3  A    between atoms: C2_2  and  C4_4
REMARK    4  A    between atoms: C6_6  and  O1_11
REMARK    5  A    between atoms: C7_7  and  C10_10
REMARK                            x       y       z     vdW  Elec       q    Type
REMARK                         _______ _______ _______ _____ _____    ______ ____
ROOT
ATOM      1  C4  UNL     1     -18.969  69.806 125.358  0.00  0.00    +0.000 A 
ATOM      2  C5  UNL     1     -18.386  70.013 126.619  0.00  0.00    +0.000 A 
ATOM      3  C6  UNL     1     -17.118  69.493 126.916  0.00  0.00    +0.000 A 
ATOM      4  C7  UNL     1     -16.417  68.755 125.946  0.00  0.00    +0.000 A 
ATOM      5  C8  UNL     1     -16.998  68.547 124.685  0.00  0.00    +0.000 A 
ATOM      6  C9  UNL     1     -18.261  69.068 124.394  0.00  0.00    +0.000 A 
ATOM      7  C10 UNL     1     -15.058  68.195 126.256  0.00  0.00    +0.000 C 
ENDROOT
BRANCH   1   9
ATOM      8  C1  UNL     1     -21.414  69.743 125.949  0.00  0.00    +0.000 C 
ATOM      9  C2  UNL     1     -20.342  70.376 125.054  0.00  0.00    +0.000 C 
ATOM     10  C3  UNL     1     -20.348  71.904 125.182  0.00  0.00    +0.000 C 
ENDBRANCH   1   9
BRANCH   3  11
ATOM     11  O1  UNL     1     -16.552  69.706 128.173  0.00  0.00    +0.000 OA
ATOM     12  H14 UNL     1     -15.593  70.017 128.278  0.00  0.00    +0.000 HD
ENDBRANCH   3  11
TORSDOF 2
ENDMDL
