MODEL 1
REMARK VINA RESULT:      -4.7      0.000      0.000
REMARK  Name = .\Carvone.pdb
REMARK  3 active torsions:
REMARK  status: ('A' for Active; 'I' for Inactive)
REMARK    1  A    between atoms: C1_1  and  C2_2
REMARK    2  A    between atoms: C7_8  and  C8_9
REMARK    3  A    between atoms: C7_8  and  C9_10
REMARK                            x       y       z     vdW  Elec       q    Type
REMARK                         _______ _______ _______ _____ _____    ______ ____
ROOT
ATOM      1  C1  UNL     1     -14.566  74.049 101.640  0.00  0.00    +0.000 C 
ATOM      2  C2  UNL     1     -14.099  75.001 102.714  0.00  0.00    +0.000 C 
ATOM      3  C3  UNL     1     -12.981  75.703 102.471  0.00  0.00    +0.000 C 
ATOM      4  C4  UNL     1     -12.450  76.651 103.452  0.00  0.00    +0.000 C 
ATOM      5  O1  UNL     1     -11.399  77.299 103.202  0.00  0.00    +0.000 OA
ATOM      6  C5  UNL     1     -13.144  76.842 104.722  0.00  0.00    +0.000 C 
ATOM      7  C6  UNL     1     -14.258  76.161 104.993  0.00  0.00    +0.000 C 
ATOM      8  C7  UNL     1     -14.882  75.154 104.033  0.00  0.00    +0.000 C 
ATOM      9  C8  UNL     1     -14.933  73.797 104.762  0.00  0.00    +0.000 C 
ATOM     10  C9  UNL     1     -16.313  75.638 103.729  0.00  0.00    +0.000 C 
ENDROOT
TORSDOF 0
ENDMDL
MODEL 2
REMARK VINA RESULT:      -4.6      1.479      1.986
REMARK  Name = .\Carvone.pdb
REMARK  3 active torsions:
REMARK  status: ('A' for Active; 'I' for Inactive)
REMARK    1  A    between atoms: C1_1  and  C2_2
REMARK    2  A    between atoms: C7_8  and  C8_9
REMARK    3  A    between atoms: C7_8  and  C9_10
REMARK                            x       y       z     vdW  Elec       q    Type
REMARK                         _______ _______ _______ _____ _____    ______ ____
ROOT
ATOM      1  C1  UNL     1     -13.145  75.506 102.313  0.00  0.00    +0.000 C 
ATOM      2  C2  UNL     1     -13.109  76.455 103.486  0.00  0.00    +0.000 C 
ATOM      3  C3  UNL     1     -11.916  76.965 103.830  0.00  0.00    +0.000 C 
ATOM      4  C4  UNL     1     -11.781  77.893 104.953  0.00  0.00    +0.000 C 
ATOM      5  O1  UNL     1     -10.651  78.359 105.257  0.00  0.00    +0.000 OA
ATOM      6  C5  UNL     1     -12.962  78.276 105.721  0.00  0.00    +0.000 C 
ATOM      7  C6  UNL     1     -14.161  77.787 105.405  0.00  0.00    +0.000 C 
ATOM      8  C7  UNL     1     -14.397  76.817 104.253  0.00  0.00    +0.000 C 
ATOM      9  C8  UNL     1     -15.017  75.538 104.851  0.00  0.00    +0.000 C 
ATOM     10  C9  UNL     1     -15.400  77.482 103.291  0.00  0.00    +0.000 C 
ENDROOT
TORSDOF 0
ENDMDL
MODEL 3
REMARK VINA RESULT:      -4.6      2.086      3.818
REMARK  Name = .\Carvone.pdb
REMARK  3 active torsions:
REMARK  status: ('A' for Active; 'I' for Inactive)
REMARK    1  A    between atoms: C1_1  and  C2_2
REMARK    2  A    between atoms: C7_8  and  C8_9
REMARK    3  A    between atoms: C7_8  and  C9_10
REMARK                            x       y       z     vdW  Elec       q    Type
REMARK                         _______ _______ _______ _____ _____    ______ ____
ROOT
ATOM      1  C1  UNL     1     -14.188  77.522 105.413  0.00  0.00    +0.000 C 
ATOM      2  C2  UNL     1     -14.059  76.439 104.369  0.00  0.00    +0.000 C 
ATOM      3  C3  UNL     1     -14.730  75.296 104.581  0.00  0.00    +0.000 C 
ATOM      4  C4  UNL     1     -14.667  74.189 103.626  0.00  0.00    +0.000 C 
ATOM      5  O1  UNL     1     -15.305  73.125 103.846  0.00  0.00    +0.000 OA
ATOM      6  C5  UNL     1     -13.860  74.322 102.416  0.00  0.00    +0.000 C 
ATOM      7  C6  UNL     1     -13.183  75.445 102.177  0.00  0.00    +0.000 C 
ATOM      8  C7  UNL     1     -13.189  76.647 103.114  0.00  0.00    +0.000 C 
ATOM      9  C8  UNL     1     -11.730  76.907 103.536  0.00  0.00    +0.000 C 
ATOM     10  C9  UNL     1     -13.723  77.850 102.311  0.00  0.00    +0.000 C 
ENDROOT
TORSDOF 0
ENDMDL
MODEL 4
REMARK VINA RESULT:      -4.4      2.334      3.346
REMARK  Name = .\Carvone.pdb
REMARK  3 active torsions:
REMARK  status: ('A' for Active; 'I' for Inactive)
REMARK    1  A    between atoms: C1_1  and  C2_2
REMARK    2  A    between atoms: C7_8  and  C8_9
REMARK    3  A    between atoms: C7_8  and  C9_10
REMARK                            x       y       z     vdW  Elec       q    Type
REMARK                         _______ _______ _______ _____ _____    ______ ____
ROOT
ATOM      1  C1  UNL     1     -17.409  74.374 103.871  0.00  0.00    +0.000 C 
ATOM      2  C2  UNL     1     -16.084  74.426 103.150  0.00  0.00    +0.000 C 
ATOM      3  C3  UNL     1     -15.959  73.683 102.038  0.00  0.00    +0.000 C 
ATOM      4  C4  UNL     1     -14.712  73.668 101.271  0.00  0.00    +0.000 C 
ATOM      5  O1  UNL     1     -14.618  72.964 100.231  0.00  0.00    +0.000 OA
ATOM      6  C5  UNL     1     -13.579  74.473 101.717  0.00  0.00    +0.000 C 
ATOM      7  C6  UNL     1     -13.672  75.222 102.816  0.00  0.00    +0.000 C 
ATOM      8  C7  UNL     1     -14.928  75.299 103.676  0.00  0.00    +0.000 C 
ATOM      9  C8  UNL     1     -14.540  74.839 105.095  0.00  0.00    +0.000 C 
ATOM     10  C9  UNL     1     -15.371  76.775 103.709  0.00  0.00    +0.000 C 
ENDROOT
TORSDOF 0
ENDMDL
MODEL 5
REMARK VINA RESULT:      -4.4      2.454      3.776
REMARK  Name = .\Carvone.pdb
REMARK  3 active torsions:
REMARK  status: ('A' for Active; 'I' for Inactive)
REMARK    1  A    between atoms: C1_1  and  C2_2
REMARK    2  A    between atoms: C7_8  and  C8_9
REMARK    3  A    between atoms: C7_8  and  C9_10
REMARK                            x       y       z     vdW  Elec       q    Type
REMARK                         _______ _______ _______ _____ _____    ______ ____
ROOT
ATOM      1  C1  UNL     1     -13.167  76.453 103.979  0.00  0.00    +0.000 C 
ATOM      2  C2  UNL     1     -14.220  75.378 104.107  0.00  0.00    +0.000 C 
ATOM      3  C3  UNL     1     -14.586  75.019 105.348  0.00  0.00    +0.000 C 
ATOM      4  C4  UNL     1     -15.599  73.986 105.572  0.00  0.00    +0.000 C 
ATOM      5  O1  UNL     1     -15.927  73.666 106.745  0.00  0.00    +0.000 OA
ATOM      6  C5  UNL     1     -16.227  73.329 104.430  0.00  0.00    +0.000 C 
ATOM      7  C6  UNL     1     -15.885  73.663 103.186  0.00  0.00    +0.000 C 
ATOM      8  C7  UNL     1     -14.842  74.726 102.857  0.00  0.00    +0.000 C 
ATOM      9  C8  UNL     1     -13.737  74.041 102.029  0.00  0.00    +0.000 C 
ATOM     10  C9  UNL     1     -15.539  75.804 102.006  0.00  0.00    +0.000 C 
ENDROOT
TORSDOF 0
ENDMDL
MODEL 6
REMARK VINA RESULT:      -4.4      1.045      2.491
REMARK  Name = .\Carvone.pdb
REMARK  3 active torsions:
REMARK  status: ('A' for Active; 'I' for Inactive)
REMARK    1  A    between atoms: C1_1  and  C2_2
REMARK    2  A    between atoms: C7_8  and  C8_9
REMARK    3  A    between atoms: C7_8  and  C9_10
REMARK                            x       y       z     vdW  Elec       q    Type
REMARK                         _______ _______ _______ _____ _____    ______ ____
ROOT
ATOM      1  C1  UNL     1     -15.099  74.400 105.471  0.00  0.00    +0.000 C 
ATOM      2  C2  UNL     1     -14.229  75.312 104.642  0.00  0.00    +0.000 C 
ATOM      3  C3  UNL     1     -13.322  76.058 105.293  0.00  0.00    +0.000 C 
ATOM      4  C4  UNL     1     -12.433  76.972 104.575  0.00  0.00    +0.000 C 
ATOM      5  O1  UNL     1     -11.590  77.662 105.207  0.00  0.00    +0.000 OA
ATOM      6  C5  UNL     1     -12.528  77.081 103.122  0.00  0.00    +0.000 C 
ATOM      7  C6  UNL     1     -13.417  76.354 102.447  0.00  0.00    +0.000 C 
ATOM      8  C7  UNL     1     -14.382  75.377 103.110  0.00  0.00    +0.000 C 
ATOM      9  C8  UNL     1     -15.811  75.833 102.754  0.00  0.00    +0.000 C 
ATOM     10  C9  UNL     1     -14.113  73.986 102.505  0.00  0.00    +0.000 C 
ENDROOT
TORSDOF 0
ENDMDL
MODEL 7
REMARK VINA RESULT:      -4.4      2.052      2.873
REMARK  Name = .\Carvone.pdb
REMARK  3 active torsions:
REMARK  status: ('A' for Active; 'I' for Inactive)
REMARK    1  A    between atoms: C1_1  and  C2_2
REMARK    2  A    between atoms: C7_8  and  C8_9
REMARK    3  A    between atoms: C7_8  and  C9_10
REMARK                            x       y       z     vdW  Elec       q    Type
REMARK                         _______ _______ _______ _____ _____    ______ ____
ROOT
ATOM      1  C1  UNL     1     -17.561  75.603 101.614  0.00  0.00    +0.000 C 
ATOM      2  C2  UNL     1     -16.068  75.461 101.784  0.00  0.00    +0.000 C 
ATOM      3  C3  UNL     1     -15.336  76.586 101.763  0.00  0.00    +0.000 C 
ATOM      4  C4  UNL     1     -13.881  76.550 101.919  0.00  0.00    +0.000 C 
ATOM      5  O1  UNL     1     -13.215  77.618 101.896  0.00  0.00    +0.000 OA
ATOM      6  C5  UNL     1     -13.205  75.269 102.103  0.00  0.00    +0.000 C 
ATOM      7  C6  UNL     1     -13.904  74.134 102.130  0.00  0.00    +0.000 C 
ATOM      8  C7  UNL     1     -15.419  74.076 101.975  0.00  0.00    +0.000 C 
ATOM      9  C8  UNL     1     -15.721  73.193 100.747  0.00  0.00    +0.000 C 
ATOM     10  C9  UNL     1     -15.985  73.413 103.246  0.00  0.00    +0.000 C 
ENDROOT
TORSDOF 0
ENDMDL
MODEL 8
REMARK VINA RESULT:      -4.4      2.132      3.455
REMARK  Name = .\Carvone.pdb
REMARK  3 active torsions:
REMARK  status: ('A' for Active; 'I' for Inactive)
REMARK    1  A    between atoms: C1_1  and  C2_2
REMARK    2  A    between atoms: C7_8  and  C8_9
REMARK    3  A    between atoms: C7_8  and  C9_10
REMARK                            x       y       z     vdW  Elec       q    Type
REMARK                         _______ _______ _______ _____ _____    ______ ____
ROOT
ATOM      1  C1  UNL     1     -12.678  76.361 103.185  0.00  0.00    +0.000 C 
ATOM      2  C2  UNL     1     -13.769  75.395 102.794  0.00  0.00    +0.000 C 
ATOM      3  C3  UNL     1     -13.575  74.660 101.687  0.00  0.00    +0.000 C 
ATOM      4  C4  UNL     1     -14.577  73.696 101.229  0.00  0.00    +0.000 C 
ATOM      5  O1  UNL     1     -14.373  73.018 100.188  0.00  0.00    +0.000 OA
ATOM      6  C5  UNL     1     -15.814  73.524 101.985  0.00  0.00    +0.000 C 
ATOM      7  C6  UNL     1     -16.036  74.238 103.089  0.00  0.00    +0.000 C 
ATOM      8  C7  UNL     1     -15.051  75.263 103.640  0.00  0.00    +0.000 C 
ATOM      9  C8  UNL     1     -15.780  76.621 103.683  0.00  0.00    +0.000 C 
ATOM     10  C9  UNL     1     -14.683  74.823 105.070  0.00  0.00    +0.000 C 
ENDROOT
TORSDOF 0
ENDMDL
MODEL 9
REMARK VINA RESULT:      -4.3      2.525      3.559
REMARK  Name = .\Carvone.pdb
REMARK  3 active torsions:
REMARK  status: ('A' for Active; 'I' for Inactive)
REMARK    1  A    between atoms: C1_1  and  C2_2
REMARK    2  A    between atoms: C7_8  and  C8_9
REMARK    3  A    between atoms: C7_8  and  C9_10
REMARK                            x       y       z     vdW  Elec       q    Type
REMARK                         _______ _______ _______ _____ _____    ______ ____
ROOT
ATOM      1  C1  UNL     1     -15.948  73.658 101.035  0.00  0.00    +0.000 C 
ATOM      2  C2  UNL     1     -15.489  74.105 102.401  0.00  0.00    +0.000 C 
ATOM      3  C3  UNL     1     -16.074  73.532 103.465  0.00  0.00    +0.000 C 
ATOM      4  C4  UNL     1     -15.695  73.901 104.831  0.00  0.00    +0.000 C 
ATOM      5  O1  UNL     1     -16.257  73.350 105.814  0.00  0.00    +0.000 OA
ATOM      6  C5  UNL     1     -14.663  74.910 105.048  0.00  0.00    +0.000 C 
ATOM      7  C6  UNL     1     -14.064  75.497 104.012  0.00  0.00    +0.000 C 
ATOM      8  C7  UNL     1     -14.393  75.177 102.558  0.00  0.00    +0.000 C 
ATOM      9  C8  UNL     1     -14.857  76.489 101.894  0.00  0.00    +0.000 C 
ATOM     10  C9  UNL     1     -13.093  74.687 101.891  0.00  0.00    +0.000 C 
ENDROOT
TORSDOF 0
ENDMDL
