MODEL 1
REMARK VINA RESULT:      -4.6      0.000      0.000
REMARK  Name = .\Carvone.pdb
REMARK  3 active torsions:
REMARK  status: ('A' for Active; 'I' for Inactive)
REMARK    1  A    between atoms: C1_1  and  C2_2
REMARK    2  A    between atoms: C7_8  and  C8_9
REMARK    3  A    between atoms: C7_8  and  C9_10
REMARK                            x       y       z     vdW  Elec       q    Type
REMARK                         _______ _______ _______ _____ _____    ______ ____
ROOT
ATOM      1  C1  UNL     1       2.288  49.641 -48.526  0.00  0.00    +0.000 C 
ATOM      2  C2  UNL     1       3.472  50.113 -47.716  0.00  0.00    +0.000 C 
ATOM      3  C3  UNL     1       3.372  50.039 -46.380  0.00  0.00    +0.000 C 
ATOM      4  C4  UNL     1       4.468  50.472 -45.511  0.00  0.00    +0.000 C 
ATOM      5  O1  UNL     1       4.352  50.393 -44.259  0.00  0.00    +0.000 OA
ATOM      6  C5  UNL     1       5.695  50.997 -46.102  0.00  0.00    +0.000 C 
ATOM      7  C6  UNL     1       5.825  51.082 -47.426  0.00  0.00    +0.000 C 
ATOM      8  C7  UNL     1       4.739  50.656 -48.406  0.00  0.00    +0.000 C 
ATOM      9  C8  UNL     1       4.375  51.891 -49.253  0.00  0.00    +0.000 C 
ATOM     10  C9  UNL     1       5.341  49.563 -49.311  0.00  0.00    +0.000 C 
ENDROOT
TORSDOF 0
ENDMDL
MODEL 2
REMARK VINA RESULT:      -3.9      1.037      2.455
REMARK  Name = .\Carvone.pdb
REMARK  3 active torsions:
REMARK  status: ('A' for Active; 'I' for Inactive)
REMARK    1  A    between atoms: C1_1  and  C2_2
REMARK    2  A    between atoms: C7_8  and  C8_9
REMARK    3  A    between atoms: C7_8  and  C9_10
REMARK                            x       y       z     vdW  Elec       q    Type
REMARK                         _______ _______ _______ _____ _____    ______ ____
ROOT
ATOM      1  C1  UNL     1       5.457  49.600 -49.400  0.00  0.00    +0.000 C 
ATOM      2  C2  UNL     1       5.013  50.103 -48.048  0.00  0.00    +0.000 C 
ATOM      3  C3  UNL     1       5.951  50.218 -47.095  0.00  0.00    +0.000 C 
ATOM      4  C4  UNL     1       5.617  50.697 -45.753  0.00  0.00    +0.000 C 
ATOM      5  O1  UNL     1       6.514  50.797 -44.875  0.00  0.00    +0.000 OA
ATOM      6  C5  UNL     1       4.238  51.057 -45.436  0.00  0.00    +0.000 C 
ATOM      7  C6  UNL     1       3.283  50.954 -46.360  0.00  0.00    +0.000 C 
ATOM      8  C7  UNL     1       3.538  50.466 -47.782  0.00  0.00    +0.000 C 
ATOM      9  C8  UNL     1       2.653  49.224 -48.005  0.00  0.00    +0.000 C 
ATOM     10  C9  UNL     1       3.105  51.594 -48.738  0.00  0.00    +0.000 C 
ENDROOT
TORSDOF 0
ENDMDL
MODEL 3
REMARK VINA RESULT:      -3.7      1.496      2.943
REMARK  Name = .\Carvone.pdb
REMARK  3 active torsions:
REMARK  status: ('A' for Active; 'I' for Inactive)
REMARK    1  A    between atoms: C1_1  and  C2_2
REMARK    2  A    between atoms: C7_8  and  C8_9
REMARK    3  A    between atoms: C7_8  and  C9_10
REMARK                            x       y       z     vdW  Elec       q    Type
REMARK                         _______ _______ _______ _____ _____    ______ ____
ROOT
ATOM      1  C1  UNL     1       6.108  50.992 -45.786  0.00  0.00    +0.000 C 
ATOM      2  C2  UNL     1       5.051  50.568 -46.776  0.00  0.00    +0.000 C 
ATOM      3  C3  UNL     1       3.874  50.155 -46.282  0.00  0.00    +0.000 C 
ATOM      4  C4  UNL     1       2.788  49.724 -47.164  0.00  0.00    +0.000 C 
ATOM      5  O1  UNL     1       1.692  49.340 -46.677  0.00  0.00    +0.000 OA
ATOM      6  C5  UNL     1       2.982  49.741 -48.611  0.00  0.00    +0.000 C 
ATOM      7  C6  UNL     1       4.139  50.147 -49.133  0.00  0.00    +0.000 C 
ATOM      8  C7  UNL     1       5.323  50.612 -48.293  0.00  0.00    +0.000 C 
ATOM      9  C8  UNL     1       6.513  49.691 -48.630  0.00  0.00    +0.000 C 
ATOM     10  C9  UNL     1       5.646  52.058 -48.717  0.00  0.00    +0.000 C 
ENDROOT
TORSDOF 0
ENDMDL
MODEL 4
REMARK VINA RESULT:      -3.0      2.417      3.495
REMARK  Name = .\Carvone.pdb
REMARK  3 active torsions:
REMARK  status: ('A' for Active; 'I' for Inactive)
REMARK    1  A    between atoms: C1_1  and  C2_2
REMARK    2  A    between atoms: C7_8  and  C8_9
REMARK    3  A    between atoms: C7_8  and  C9_10
REMARK                            x       y       z     vdW  Elec       q    Type
REMARK                         _______ _______ _______ _____ _____    ______ ____
ROOT
ATOM      1  C1  UNL     1       3.165  49.642 -47.689  0.00  0.00    +0.000 C 
ATOM      2  C2  UNL     1       4.182  50.622 -48.220  0.00  0.00    +0.000 C 
ATOM      3  C3  UNL     1       3.765  51.499 -49.147  0.00  0.00    +0.000 C 
ATOM      4  C4  UNL     1       4.679  52.489 -49.722  0.00  0.00    +0.000 C 
ATOM      5  O1  UNL     1       4.266  53.302 -50.590  0.00  0.00    +0.000 OA
ATOM      6  C5  UNL     1       6.071  52.528 -49.284  0.00  0.00    +0.000 C 
ATOM      7  C6  UNL     1       6.514  51.671 -48.364  0.00  0.00    +0.000 C 
ATOM      8  C7  UNL     1       5.637  50.609 -47.712  0.00  0.00    +0.000 C 
ATOM      9  C8  UNL     1       6.275  49.239 -48.015  0.00  0.00    +0.000 C 
ATOM     10  C9  UNL     1       5.655  50.868 -46.193  0.00  0.00    +0.000 C 
ENDROOT
TORSDOF 0
ENDMDL
MODEL 5
REMARK VINA RESULT:      -2.8      2.198      3.624
REMARK  Name = .\Carvone.pdb
REMARK  3 active torsions:
REMARK  status: ('A' for Active; 'I' for Inactive)
REMARK    1  A    between atoms: C1_1  and  C2_2
REMARK    2  A    between atoms: C7_8  and  C8_9
REMARK    3  A    between atoms: C7_8  and  C9_10
REMARK                            x       y       z     vdW  Elec       q    Type
REMARK                         _______ _______ _______ _____ _____    ______ ____
ROOT
ATOM      1  C1  UNL     1       4.903  50.691 -45.406  0.00  0.00    +0.000 C 
ATOM      2  C2  UNL     1       4.622  50.473 -46.873  0.00  0.00    +0.000 C 
ATOM      3  C3  UNL     1       5.680  50.341 -47.689  0.00  0.00    +0.000 C 
ATOM      4  C4  UNL     1       5.507  50.126 -49.127  0.00  0.00    +0.000 C 
ATOM      5  O1  UNL     1       6.514  50.005 -49.874  0.00  0.00    +0.000 OA
ATOM      6  C5  UNL     1       4.163  50.054 -49.692  0.00  0.00    +0.000 C 
ATOM      7  C6  UNL     1       3.093  50.181 -48.907  0.00  0.00    +0.000 C 
ATOM      8  C7  UNL     1       3.176  50.406 -47.402  0.00  0.00    +0.000 C 
ATOM      9  C8  UNL     1       2.454  51.734 -47.097  0.00  0.00    +0.000 C 
ATOM     10  C9  UNL     1       2.432  49.241 -46.722  0.00  0.00    +0.000 C 
ENDROOT
TORSDOF 0
ENDMDL
MODEL 6
REMARK VINA RESULT:      -2.7      1.921      2.838
REMARK  Name = .\Carvone.pdb
REMARK  3 active torsions:
REMARK  status: ('A' for Active; 'I' for Inactive)
REMARK    1  A    between atoms: C1_1  and  C2_2
REMARK    2  A    between atoms: C7_8  and  C8_9
REMARK    3  A    between atoms: C7_8  and  C9_10
REMARK                            x       y       z     vdW  Elec       q    Type
REMARK                         _______ _______ _______ _____ _____    ______ ____
ROOT
ATOM      1  C1  UNL     1       6.514  48.941 -48.877  0.00  0.00    +0.000 C 
ATOM      2  C2  UNL     1       5.290  49.809 -48.718  0.00  0.00    +0.000 C 
ATOM      3  C3  UNL     1       4.298  49.338 -47.947  0.00  0.00    +0.000 C 
ATOM      4  C4  UNL     1       3.071  50.108 -47.732  0.00  0.00    +0.000 C 
ATOM      5  O1  UNL     1       2.153  49.646 -47.004  0.00  0.00    +0.000 OA
ATOM      6  C5  UNL     1       2.917  51.414 -48.366  0.00  0.00    +0.000 C 
ATOM      7  C6  UNL     1       3.885  51.910 -49.137  0.00  0.00    +0.000 C 
ATOM      8  C7  UNL     1       5.194  51.180 -49.416  0.00  0.00    +0.000 C 
ATOM      9  C8  UNL     1       5.295  50.988 -50.943  0.00  0.00    +0.000 C 
ATOM     10  C9  UNL     1       6.339  52.089 -48.928  0.00  0.00    +0.000 C 
ENDROOT
TORSDOF 0
ENDMDL
MODEL 7
REMARK VINA RESULT:      -2.4      0.610      2.522
REMARK  Name = .\Carvone.pdb
REMARK  3 active torsions:
REMARK  status: ('A' for Active; 'I' for Inactive)
REMARK    1  A    between atoms: C1_1  and  C2_2
REMARK    2  A    between atoms: C7_8  and  C8_9
REMARK    3  A    between atoms: C7_8  and  C9_10
REMARK                            x       y       z     vdW  Elec       q    Type
REMARK                         _______ _______ _______ _____ _____    ______ ____
ROOT
ATOM      1  C1  UNL     1       6.515  51.989 -48.130  0.00  0.00    +0.000 C 
ATOM      2  C2  UNL     1       5.354  51.236 -47.526  0.00  0.00    +0.000 C 
ATOM      3  C3  UNL     1       5.340  51.094 -46.192  0.00  0.00    +0.000 C 
ATOM      4  C4  UNL     1       4.256  50.379 -45.515  0.00  0.00    +0.000 C 
ATOM      5  O1  UNL     1       4.263  50.259 -44.262  0.00  0.00    +0.000 OA
ATOM      6  C5  UNL     1       3.166  49.806 -46.300  0.00  0.00    +0.000 C 
ATOM      7  C6  UNL     1       3.152  49.931 -47.627  0.00  0.00    +0.000 C 
ATOM      8  C7  UNL     1       4.236  50.657 -48.416  0.00  0.00    +0.000 C 
ATOM      9  C8  UNL     1       4.840  49.642 -49.406  0.00  0.00    +0.000 C 
ATOM     10  C9  UNL     1       3.552  51.799 -49.192  0.00  0.00    +0.000 C 
ENDROOT
TORSDOF 0
ENDMDL
MODEL 8
REMARK VINA RESULT:      -2.4      1.672      2.552
REMARK  Name = .\Carvone.pdb
REMARK  3 active torsions:
REMARK  status: ('A' for Active; 'I' for Inactive)
REMARK    1  A    between atoms: C1_1  and  C2_2
REMARK    2  A    between atoms: C7_8  and  C8_9
REMARK    3  A    between atoms: C7_8  and  C9_10
REMARK                            x       y       z     vdW  Elec       q    Type
REMARK                         _______ _______ _______ _____ _____    ______ ____
ROOT
ATOM      1  C1  UNL     1       4.228  52.871 -50.348  0.00  0.00    +0.000 C 
ATOM      2  C2  UNL     1       4.351  51.866 -49.228  0.00  0.00    +0.000 C 
ATOM      3  C3  UNL     1       3.212  51.392 -48.699  0.00  0.00    +0.000 C 
ATOM      4  C4  UNL     1       3.230  50.414 -47.610  0.00  0.00    +0.000 C 
ATOM      5  O1  UNL     1       2.149  49.983 -47.129  0.00  0.00    +0.000 OA
ATOM      6  C5  UNL     1       4.507  49.941 -47.083  0.00  0.00    +0.000 C 
ATOM      7  C6  UNL     1       5.655  50.393 -47.587  0.00  0.00    +0.000 C 
ATOM      8  C7  UNL     1       5.733  51.410 -48.720  0.00  0.00    +0.000 C 
ATOM      9  C8  UNL     1       6.514  52.628 -48.190  0.00  0.00    +0.000 C 
ATOM     10  C9  UNL     1       6.514  50.751 -49.874  0.00  0.00    +0.000 C 
ENDROOT
TORSDOF 0
ENDMDL
MODEL 9
REMARK VINA RESULT:      -2.2      2.505      3.931
REMARK  Name = .\Carvone.pdb
REMARK  3 active torsions:
REMARK  status: ('A' for Active; 'I' for Inactive)
REMARK    1  A    between atoms: C1_1  and  C2_2
REMARK    2  A    between atoms: C7_8  and  C8_9
REMARK    3  A    between atoms: C7_8  and  C9_10
REMARK                            x       y       z     vdW  Elec       q    Type
REMARK                         _______ _______ _______ _____ _____    ______ ____
ROOT
ATOM      1  C1  UNL     1       6.366  49.154 -48.149  0.00  0.00    +0.000 C 
ATOM      2  C2  UNL     1       5.351  50.213 -48.507  0.00  0.00    +0.000 C 
ATOM      3  C3  UNL     1       5.612  50.979 -49.578  0.00  0.00    +0.000 C 
ATOM      4  C4  UNL     1       4.687  52.031 -50.003  0.00  0.00    +0.000 C 
ATOM      5  O1  UNL     1       4.952  52.738 -51.011  0.00  0.00    +0.000 OA
ATOM      6  C5  UNL     1       3.456  52.259 -49.252  0.00  0.00    +0.000 C 
ATOM      7  C6  UNL     1       3.168  51.514 -48.184  0.00  0.00    +0.000 C 
ATOM      8  C7  UNL     1       4.071  50.398 -47.669  0.00  0.00    +0.000 C 
ATOM      9  C8  UNL     1       4.451  50.749 -46.217  0.00  0.00    +0.000 C 
ATOM     10  C9  UNL     1       3.247  49.096 -47.692  0.00  0.00    +0.000 C 
ENDROOT
TORSDOF 0
ENDMDL
