MODEL 1
REMARK VINA RESULT:      -4.8      0.000      0.000
REMARK  Name = .\Catechins.pdb
REMARK  8 active torsions:
REMARK  status: ('A' for Active; 'I' for Inactive)
REMARK    1  A    between atoms: C3_3  and  O7_19
REMARK    2  A    between atoms: C4_4  and  O6_18
REMARK    3  A    between atoms: C6_6  and  C7_7
REMARK    4  A    between atoms: C8_8  and  O5_17
REMARK    5  A    between atoms: C9_9  and  O4_16
REMARK    6  A    between atoms: C10_10  and  O3_15
REMARK    7  A    between atoms: C11_11  and  C12_13
REMARK    8  A    between atoms: C12_13  and  O2_14
REMARK                            x       y       z     vdW  Elec       q    Type
REMARK                         _______ _______ _______ _____ _____    ______ ____
ROOT
ATOM      1  C7  UNL     1     -13.918  37.160  43.866  0.00  0.00    +0.000 C 
ATOM      2  C8  UNL     1     -12.808  37.738  44.783  0.00  0.00    +0.000 C 
ATOM      3  C9  UNL     1     -13.184  37.588  46.283  0.00  0.00    +0.000 C 
ATOM      4  C10 UNL     1     -14.711  37.633  46.462  0.00  0.00    +0.000 C 
ATOM      5  C11 UNL     1     -15.396  36.535  45.576  0.00  0.00    +0.000 C 
ATOM      6  O1  UNL     1     -14.562  36.079  44.515  0.00  0.00    +0.000 OA
ENDROOT
BRANCH   1  12
ATOM      7  C1  UNL     1     -12.290  37.408  41.936  0.00  0.00    +0.000 A 
ATOM      8  C2  UNL     1     -11.772  36.986  40.708  0.00  0.00    +0.000 A 
ATOM      9  C3  UNL     1     -12.289  35.846  40.078  0.00  0.00    +0.000 A 
ATOM     10  C4  UNL     1     -13.333  35.132  40.680  0.00  0.00    +0.000 A 
ATOM     11  C5  UNL     1     -13.853  35.556  41.911  0.00  0.00    +0.000 A 
ATOM     12  C6  UNL     1     -13.327  36.688  42.556  0.00  0.00    +0.000 A 
BRANCH  10  13
ATOM     13  O6  UNL     1     -13.851  34.003  40.046  0.00  0.00    +0.000 OA
ATOM     14  H15 UNL     1     -14.337  34.070  39.159  0.00  0.00    +0.000 HD
ENDBRANCH  10  13
BRANCH   9  15
ATOM     15  O7  UNL     1     -11.774  35.422  38.856  0.00  0.00    +0.000 OA
ATOM     16  H16 UNL     1     -10.927  35.822  38.469  0.00  0.00    +0.000 HD
ENDBRANCH   9  15
ENDBRANCH   1  12
BRANCH   4  17
ATOM     17  O3  UNL     1     -15.046  37.485  47.821  0.00  0.00    +0.000 OA
ATOM     18  H12 UNL     1     -14.843  36.546  48.072  0.00  0.00    +0.000 HD
ENDBRANCH   4  17
BRANCH   3  19
ATOM     19  O4  UNL     1     -12.578  38.594  47.054  0.00  0.00    +0.000 OA
ATOM     20  H13 UNL     1     -11.599  38.447  46.993  0.00  0.00    +0.000 HD
ENDBRANCH   3  19
BRANCH   2  21
ATOM     21  O5  UNL     1     -12.540  39.078  44.444  0.00  0.00    +0.000 OA
ATOM     22  H14 UNL     1     -13.038  39.284  43.612  0.00  0.00    +0.000 HD
ENDBRANCH   2  21
BRANCH   5  23
ATOM     23  C12 UNL     1     -15.828  35.306  46.390  0.00  0.00    +0.000 C 
BRANCH  23  24
ATOM     24  O2  UNL     1     -14.696  34.614  46.842  0.00  0.00    +0.000 OA
ATOM     25  H11 UNL     1     -13.923  35.003  46.356  0.00  0.00    +0.000 HD
ENDBRANCH  23  24
ENDBRANCH   5  23
TORSDOF 8
ENDMDL
MODEL 2
REMARK VINA RESULT:      -4.6      1.189      2.047
REMARK  Name = .\Catechins.pdb
REMARK  8 active torsions:
REMARK  status: ('A' for Active; 'I' for Inactive)
REMARK    1  A    between atoms: C3_3  and  O7_19
REMARK    2  A    between atoms: C4_4  and  O6_18
REMARK    3  A    between atoms: C6_6  and  C7_7
REMARK    4  A    between atoms: C8_8  and  O5_17
REMARK    5  A    between atoms: C9_9  and  O4_16
REMARK    6  A    between atoms: C10_10  and  O3_15
REMARK    7  A    between atoms: C11_11  and  C12_13
REMARK    8  A    between atoms: C12_13  and  O2_14
REMARK                            x       y       z     vdW  Elec       q    Type
REMARK                         _______ _______ _______ _____ _____    ______ ____
ROOT
ATOM      1  C7  UNL     1     -14.612  36.192  43.547  0.00  0.00    +0.000 C 
ATOM      2  C8  UNL     1     -13.494  37.243  43.774  0.00  0.00    +0.000 C 
ATOM      3  C9  UNL     1     -13.443  37.699  45.258  0.00  0.00    +0.000 C 
ATOM      4  C10 UNL     1     -14.841  37.618  45.894  0.00  0.00    +0.000 C 
ATOM      5  C11 UNL     1     -15.423  36.168  45.748  0.00  0.00    +0.000 C 
ATOM      6  O1  UNL     1     -14.786  35.417  44.719  0.00  0.00    +0.000 OA
ENDROOT
BRANCH   1  12
ATOM      7  C1  UNL     1     -14.713  33.958  42.351  0.00  0.00    +0.000 A 
ATOM      8  C2  UNL     1     -14.355  33.116  41.294  0.00  0.00    +0.000 A 
ATOM      9  C3  UNL     1     -13.529  33.589  40.265  0.00  0.00    +0.000 A 
ATOM     10  C4  UNL     1     -13.057  34.907  40.301  0.00  0.00    +0.000 A 
ATOM     11  C5  UNL     1     -13.416  35.751  41.361  0.00  0.00    +0.000 A 
ATOM     12  C6  UNL     1     -14.259  35.288  42.387  0.00  0.00    +0.000 A 
BRANCH  10  13
ATOM     13  O6  UNL     1     -12.228  35.370  39.280  0.00  0.00    +0.000 OA
ATOM     14  H15 UNL     1     -12.335  35.050  38.324  0.00  0.00    +0.000 HD
ENDBRANCH  10  13
BRANCH   9  15
ATOM     15  O7  UNL     1     -13.171  32.754  39.209  0.00  0.00    +0.000 OA
ATOM     16  H16 UNL     1     -12.476  32.024  39.321  0.00  0.00    +0.000 HD
ENDBRANCH   9  15
ENDBRANCH   1  12
BRANCH   4  17
ATOM     17  O3  UNL     1     -14.787  38.020  47.241  0.00  0.00    +0.000 OA
ATOM     18  H12 UNL     1     -15.721  38.175  47.538  0.00  0.00    +0.000 HD
ENDBRANCH   4  17
BRANCH   3  19
ATOM     19  O4  UNL     1     -12.940  39.006  45.364  0.00  0.00    +0.000 OA
ATOM     20  H13 UNL     1     -13.113  39.302  46.295  0.00  0.00    +0.000 HD
ENDBRANCH   3  19
BRANCH   2  21
ATOM     21  O5  UNL     1     -13.661  38.334  42.899  0.00  0.00    +0.000 OA
ATOM     22  H14 UNL     1     -14.366  38.920  43.279  0.00  0.00    +0.000 HD
ENDBRANCH   2  21
BRANCH   5  23
ATOM     23  C12 UNL     1     -15.321  35.358  47.049  0.00  0.00    +0.000 C 
BRANCH  23  24
ATOM     24  O2  UNL     1     -13.979  35.056  47.315  0.00  0.00    +0.000 OA
ATOM     25  H11 UNL     1     -13.549  34.908  46.433  0.00  0.00    +0.000 HD
ENDBRANCH  23  24
ENDBRANCH   5  23
TORSDOF 8
ENDMDL
MODEL 3
REMARK VINA RESULT:      -4.4      1.448      2.260
REMARK  Name = .\Catechins.pdb
REMARK  8 active torsions:
REMARK  status: ('A' for Active; 'I' for Inactive)
REMARK    1  A    between atoms: C3_3  and  O7_19
REMARK    2  A    between atoms: C4_4  and  O6_18
REMARK    3  A    between atoms: C6_6  and  C7_7
REMARK    4  A    between atoms: C8_8  and  O5_17
REMARK    5  A    between atoms: C9_9  and  O4_16
REMARK    6  A    between atoms: C10_10  and  O3_15
REMARK    7  A    between atoms: C11_11  and  C12_13
REMARK    8  A    between atoms: C12_13  and  O2_14
REMARK                            x       y       z     vdW  Elec       q    Type
REMARK                         _______ _______ _______ _____ _____    ______ ____
ROOT
ATOM      1  C7  UNL     1     -13.662  37.720  44.511  0.00  0.00    +0.000 C 
ATOM      2  C8  UNL     1     -12.229  37.756  45.105  0.00  0.00    +0.000 C 
ATOM      3  C9  UNL     1     -12.259  38.052  46.629  0.00  0.00    +0.000 C 
ATOM      4  C10 UNL     1     -13.478  38.921  46.984  0.00  0.00    +0.000 C 
ATOM      5  C11 UNL     1     -14.800  38.230  46.498  0.00  0.00    +0.000 C 
ATOM      6  O1  UNL     1     -14.574  37.251  45.488  0.00  0.00    +0.000 OA
ENDROOT
BRANCH   1  12
ATOM      7  C1  UNL     1     -14.447  35.621  43.321  0.00  0.00    +0.000 A 
ATOM      8  C2  UNL     1     -14.459  34.775  42.210  0.00  0.00    +0.000 A 
ATOM      9  C3  UNL     1     -13.723  35.105  41.064  0.00  0.00    +0.000 A 
ATOM     10  C4  UNL     1     -12.969  36.286  41.037  0.00  0.00    +0.000 A 
ATOM     11  C5  UNL     1     -12.959  37.135  42.152  0.00  0.00    +0.000 A 
ATOM     12  C6  UNL     1     -13.709  36.818  43.298  0.00  0.00    +0.000 A 
BRANCH  10  13
ATOM     13  O6  UNL     1     -12.232  36.607  39.898  0.00  0.00    +0.000 OA
ATOM     14  H15 UNL     1     -11.231  36.455  39.854  0.00  0.00    +0.000 HD
ENDBRANCH  10  13
BRANCH   9  15
ATOM     15  O7  UNL     1     -13.732  34.264  39.953  0.00  0.00    +0.000 OA
ATOM     16  H16 UNL     1     -12.982  33.605  39.780  0.00  0.00    +0.000 HD
ENDBRANCH   9  15
ENDBRANCH   1  12
BRANCH   4  17
ATOM     17  O3  UNL     1     -13.507  39.176  48.368  0.00  0.00    +0.000 OA
ATOM     18  H12 UNL     1     -13.973  38.412  48.797  0.00  0.00    +0.000 HD
ENDBRANCH   4  17
BRANCH   3  19
ATOM     19  O4  UNL     1     -11.077  38.690  47.038  0.00  0.00    +0.000 OA
ATOM     20  H13 UNL     1     -10.623  39.003  46.213  0.00  0.00    +0.000 HD
ENDBRANCH   3  19
BRANCH   2  21
ATOM     21  O5  UNL     1     -11.434  38.686  44.408  0.00  0.00    +0.000 OA
ATOM     22  H14 UNL     1     -11.063  38.227  43.610  0.00  0.00    +0.000 HD
ENDBRANCH   2  21
BRANCH   5  23
ATOM     23  C12 UNL     1     -15.566  37.550  47.643  0.00  0.00    +0.000 C 
BRANCH  23  24
ATOM     24  O2  UNL     1     -16.462  38.460  48.220  0.00  0.00    +0.000 OA
ATOM     25  H11 UNL     1     -17.263  38.466  47.634  0.00  0.00    +0.000 HD
ENDBRANCH  23  24
ENDBRANCH   5  23
TORSDOF 8
ENDMDL
MODEL 4
REMARK VINA RESULT:      -4.3      2.166      4.138
REMARK  Name = .\Catechins.pdb
REMARK  8 active torsions:
REMARK  status: ('A' for Active; 'I' for Inactive)
REMARK    1  A    between atoms: C3_3  and  O7_19
REMARK    2  A    between atoms: C4_4  and  O6_18
REMARK    3  A    between atoms: C6_6  and  C7_7
REMARK    4  A    between atoms: C8_8  and  O5_17
REMARK    5  A    between atoms: C9_9  and  O4_16
REMARK    6  A    between atoms: C10_10  and  O3_15
REMARK    7  A    between atoms: C11_11  and  C12_13
REMARK    8  A    between atoms: C12_13  and  O2_14
REMARK                            x       y       z     vdW  Elec       q    Type
REMARK                         _______ _______ _______ _____ _____    ______ ____
ROOT
ATOM      1  C7  UNL     1     -14.238  37.485  46.149  0.00  0.00    +0.000 C 
ATOM      2  C8  UNL     1     -15.505  38.220  46.661  0.00  0.00    +0.000 C 
ATOM      3  C9  UNL     1     -15.151  39.621  47.230  0.00  0.00    +0.000 C 
ATOM      4  C10 UNL     1     -13.728  39.622  47.813  0.00  0.00    +0.000 C 
ATOM      5  C11 UNL     1     -12.694  39.154  46.730  0.00  0.00    +0.000 C 
ATOM      6  O1  UNL     1     -13.299  38.428  45.664  0.00  0.00    +0.000 OA
ENDROOT
BRANCH   1  12
ATOM      7  C1  UNL     1     -15.450  35.424  45.303  0.00  0.00    +0.000 A 
ATOM      8  C2  UNL     1     -15.753  34.510  44.290  0.00  0.00    +0.000 A 
ATOM      9  C3  UNL     1     -15.201  34.666  43.011  0.00  0.00    +0.000 A 
ATOM     10  C4  UNL     1     -14.338  35.737  42.752  0.00  0.00    +0.000 A 
ATOM     11  C5  UNL     1     -14.034  36.654  43.769  0.00  0.00    +0.000 A 
ATOM     12  C6  UNL     1     -14.599  36.514  45.048  0.00  0.00    +0.000 A 
BRANCH  10  13
ATOM     13  O6  UNL     1     -13.784  35.884  41.481  0.00  0.00    +0.000 OA
ATOM     14  H15 UNL     1     -14.092  36.614  40.849  0.00  0.00    +0.000 HD
ENDBRANCH  10  13
BRANCH   9  15
ATOM     15  O7  UNL     1     -15.501  33.757  41.999  0.00  0.00    +0.000 OA
ATOM     16  H16 UNL     1     -15.325  32.765  42.106  0.00  0.00    +0.000 HD
ENDBRANCH   9  15
ENDBRANCH   1  12
BRANCH   4  17
ATOM     17  O3  UNL     1     -13.408  40.896  48.316  0.00  0.00    +0.000 OA
ATOM     18  H12 UNL     1     -12.635  41.232  47.792  0.00  0.00    +0.000 HD
ENDBRANCH   4  17
BRANCH   3  19
ATOM     19  O4  UNL     1     -16.075  40.011  48.212  0.00  0.00    +0.000 OA
ATOM     20  H13 UNL     1     -15.636  39.863  49.090  0.00  0.00    +0.000 HD
ENDBRANCH   3  19
BRANCH   2  21
ATOM     21  O5  UNL     1     -16.181  37.428  47.609  0.00  0.00    +0.000 OA
ATOM     22  H14 UNL     1     -15.530  36.777  47.978  0.00  0.00    +0.000 HD
ENDBRANCH   2  21
BRANCH   5  23
ATOM     23  C12 UNL     1     -11.915  40.325  46.114  0.00  0.00    +0.000 C 
BRANCH  23  24
ATOM     24  O2  UNL     1     -11.023  39.845  45.146  0.00  0.00    +0.000 OA
ATOM     25  H11 UNL     1     -11.571  39.334  44.494  0.00  0.00    +0.000 HD
ENDBRANCH  23  24
ENDBRANCH   5  23
TORSDOF 8
ENDMDL
MODEL 5
REMARK VINA RESULT:      -4.3      1.328      1.751
REMARK  Name = .\Catechins.pdb
REMARK  8 active torsions:
REMARK  status: ('A' for Active; 'I' for Inactive)
REMARK    1  A    between atoms: C3_3  and  O7_19
REMARK    2  A    between atoms: C4_4  and  O6_18
REMARK    3  A    between atoms: C6_6  and  C7_7
REMARK    4  A    between atoms: C8_8  and  O5_17
REMARK    5  A    between atoms: C9_9  and  O4_16
REMARK    6  A    between atoms: C10_10  and  O3_15
REMARK    7  A    between atoms: C11_11  and  C12_13
REMARK    8  A    between atoms: C12_13  and  O2_14
REMARK                            x       y       z     vdW  Elec       q    Type
REMARK                         _______ _______ _______ _____ _____    ______ ____
ROOT
ATOM      1  C7  UNL     1     -14.587  36.188  43.524  0.00  0.00    +0.000 C 
ATOM      2  C8  UNL     1     -13.489  37.253  43.784  0.00  0.00    +0.000 C 
ATOM      3  C9  UNL     1     -13.483  37.704  45.270  0.00  0.00    +0.000 C 
ATOM      4  C10 UNL     1     -14.897  37.603  45.869  0.00  0.00    +0.000 C 
ATOM      5  C11 UNL     1     -15.455  36.146  45.703  0.00  0.00    +0.000 C 
ATOM      6  O1  UNL     1     -14.782  35.406  44.689  0.00  0.00    +0.000 OA
ENDROOT
BRANCH   1  12
ATOM      7  C1  UNL     1     -13.372  35.775  41.336  0.00  0.00    +0.000 A 
ATOM      8  C2  UNL     1     -13.038  34.954  40.256  0.00  0.00    +0.000 A 
ATOM      9  C3  UNL     1     -13.529  33.643  40.189  0.00  0.00    +0.000 A 
ATOM     10  C4  UNL     1     -14.361  33.158  41.206  0.00  0.00    +0.000 A 
ATOM     11  C5  UNL     1     -14.695  33.982  42.290  0.00  0.00    +0.000 A 
ATOM     12  C6  UNL     1     -14.192  35.292  42.371  0.00  0.00    +0.000 A 
BRANCH  10  13
ATOM     13  O6  UNL     1     -14.853  31.856  41.131  0.00  0.00    +0.000 OA
ATOM     14  H15 UNL     1     -14.237  31.053  41.178  0.00  0.00    +0.000 HD
ENDBRANCH  10  13
BRANCH   9  15
ATOM     15  O7  UNL     1     -13.198  32.821  39.114  0.00  0.00    +0.000 OA
ATOM     16  H16 UNL     1     -13.868  32.603  38.386  0.00  0.00    +0.000 HD
ENDBRANCH   9  15
ENDBRANCH   1  12
BRANCH   4  17
ATOM     17  O3  UNL     1     -14.883  38.001  47.218  0.00  0.00    +0.000 OA
ATOM     18  H12 UNL     1     -15.644  38.625  47.347  0.00  0.00    +0.000 HD
ENDBRANCH   4  17
BRANCH   3  19
ATOM     19  O4  UNL     1     -13.001  39.017  45.393  0.00  0.00    +0.000 OA
ATOM     20  H13 UNL     1     -13.682  39.523  45.907  0.00  0.00    +0.000 HD
ENDBRANCH   3  19
BRANCH   2  21
ATOM     21  O5  UNL     1     -13.649  38.344  42.908  0.00  0.00    +0.000 OA
ATOM     22  H14 UNL     1     -13.695  37.985  41.985  0.00  0.00    +0.000 HD
ENDBRANCH   2  21
BRANCH   5  23
ATOM     23  C12 UNL     1     -15.376  35.333  47.004  0.00  0.00    +0.000 C 
BRANCH  23  24
ATOM     24  O2  UNL     1     -14.038  35.049  47.306  0.00  0.00    +0.000 OA
ATOM     25  H11 UNL     1     -13.582  34.910  46.435  0.00  0.00    +0.000 HD
ENDBRANCH  23  24
ENDBRANCH   5  23
TORSDOF 8
ENDMDL
MODEL 6
REMARK VINA RESULT:      -4.2      1.889      3.127
REMARK  Name = .\Catechins.pdb
REMARK  8 active torsions:
REMARK  status: ('A' for Active; 'I' for Inactive)
REMARK    1  A    between atoms: C3_3  and  O7_19
REMARK    2  A    between atoms: C4_4  and  O6_18
REMARK    3  A    between atoms: C6_6  and  C7_7
REMARK    4  A    between atoms: C8_8  and  O5_17
REMARK    5  A    between atoms: C9_9  and  O4_16
REMARK    6  A    between atoms: C10_10  and  O3_15
REMARK    7  A    between atoms: C11_11  and  C12_13
REMARK    8  A    between atoms: C12_13  and  O2_14
REMARK                            x       y       z     vdW  Elec       q    Type
REMARK                         _______ _______ _______ _____ _____    ______ ____
ROOT
ATOM      1  C7  UNL     1     -14.287  37.048  44.781  0.00  0.00    +0.000 C 
ATOM      2  C8  UNL     1     -12.964  37.639  44.227  0.00  0.00    +0.000 C 
ATOM      3  C9  UNL     1     -12.148  38.339  45.349  0.00  0.00    +0.000 C 
ATOM      4  C10 UNL     1     -13.089  38.908  46.423  0.00  0.00    +0.000 C 
ATOM      5  C11 UNL     1     -14.013  37.776  46.994  0.00  0.00    +0.000 C 
ATOM      6  O1  UNL     1     -14.108  36.649  46.128  0.00  0.00    +0.000 OA
ENDROOT
BRANCH   1  12
ATOM      7  C1  UNL     1     -15.660  34.940  44.454  0.00  0.00    +0.000 A 
ATOM      8  C2  UNL     1     -16.032  33.825  43.698  0.00  0.00    +0.000 A 
ATOM      9  C3  UNL     1     -15.464  33.608  42.435  0.00  0.00    +0.000 A 
ATOM     10  C4  UNL     1     -14.516  34.509  41.934  0.00  0.00    +0.000 A 
ATOM     11  C5  UNL     1     -14.143  35.627  42.693  0.00  0.00    +0.000 A 
ATOM     12  C6  UNL     1     -14.722  35.860  43.952  0.00  0.00    +0.000 A 
BRANCH  10  13
ATOM     13  O6  UNL     1     -13.948  34.284  40.681  0.00  0.00    +0.000 OA
ATOM     14  H15 UNL     1     -13.312  33.512  40.518  0.00  0.00    +0.000 HD
ENDBRANCH  10  13
BRANCH   9  15
ATOM     15  O7  UNL     1     -15.834  32.499  41.678  0.00  0.00    +0.000 OA
ATOM     16  H16 UNL     1     -16.554  31.858  41.992  0.00  0.00    +0.000 HD
ENDBRANCH   9  15
ENDBRANCH   1  12
BRANCH   4  17
ATOM     17  O3  UNL     1     -12.344  39.530  47.442  0.00  0.00    +0.000 OA
ATOM     18  H12 UNL     1     -11.413  39.624  47.109  0.00  0.00    +0.000 HD
ENDBRANCH   4  17
BRANCH   3  19
ATOM     19  O4  UNL     1     -11.345  39.362  44.819  0.00  0.00    +0.000 OA
ATOM     20  H13 UNL     1     -10.928  39.825  45.592  0.00  0.00    +0.000 HD
ENDBRANCH   3  19
BRANCH   2  21
ATOM     21  O5  UNL     1     -13.228  38.511  43.153  0.00  0.00    +0.000 OA
ATOM     22  H14 UNL     1     -14.211  38.549  43.030  0.00  0.00    +0.000 HD
ENDBRANCH   2  21
BRANCH   5  23
ATOM     23  C12 UNL     1     -13.546  37.271  48.367  0.00  0.00    +0.000 C 
BRANCH  23  24
ATOM     24  O2  UNL     1     -12.340  36.572  48.231  0.00  0.00    +0.000 OA
ATOM     25  H11 UNL     1     -11.872  36.977  47.455  0.00  0.00    +0.000 HD
ENDBRANCH  23  24
ENDBRANCH   5  23
TORSDOF 8
ENDMDL
MODEL 7
REMARK VINA RESULT:      -4.2      2.313      4.016
REMARK  Name = .\Catechins.pdb
REMARK  8 active torsions:
REMARK  status: ('A' for Active; 'I' for Inactive)
REMARK    1  A    between atoms: C3_3  and  O7_19
REMARK    2  A    between atoms: C4_4  and  O6_18
REMARK    3  A    between atoms: C6_6  and  C7_7
REMARK    4  A    between atoms: C8_8  and  O5_17
REMARK    5  A    between atoms: C9_9  and  O4_16
REMARK    6  A    between atoms: C10_10  and  O3_15
REMARK    7  A    between atoms: C11_11  and  C12_13
REMARK    8  A    between atoms: C12_13  and  O2_14
REMARK                            x       y       z     vdW  Elec       q    Type
REMARK                         _______ _______ _______ _____ _____    ______ ____
ROOT
ATOM      1  C7  UNL     1     -13.226  38.241  45.532  0.00  0.00    +0.000 C 
ATOM      2  C8  UNL     1     -12.259  37.636  46.584  0.00  0.00    +0.000 C 
ATOM      3  C9  UNL     1     -12.031  38.617  47.767  0.00  0.00    +0.000 C 
ATOM      4  C10 UNL     1     -12.156  40.074  47.290  0.00  0.00    +0.000 C 
ATOM      5  C11 UNL     1     -13.547  40.304  46.602  0.00  0.00    +0.000 C 
ATOM      6  O1  UNL     1     -14.160  39.092  46.171  0.00  0.00    +0.000 OA
ENDROOT
BRANCH   1  12
ATOM      7  C1  UNL     1     -14.897  36.334  45.464  0.00  0.00    +0.000 A 
ATOM      8  C2  UNL     1     -15.547  35.298  44.788  0.00  0.00    +0.000 A 
ATOM      9  C3  UNL     1     -15.261  35.047  43.439  0.00  0.00    +0.000 A 
ATOM     10  C4  UNL     1     -14.316  35.835  42.770  0.00  0.00    +0.000 A 
ATOM     11  C5  UNL     1     -13.665  36.875  43.449  0.00  0.00    +0.000 A 
ATOM     12  C6  UNL     1     -13.960  37.142  44.796  0.00  0.00    +0.000 A 
BRANCH  10  13
ATOM     13  O6  UNL     1     -14.029  35.578  41.430  0.00  0.00    +0.000 OA
ATOM     14  H15 UNL     1     -14.698  35.118  40.823  0.00  0.00    +0.000 HD
ENDBRANCH  10  13
BRANCH   9  15
ATOM     15  O7  UNL     1     -15.908  34.016  42.761  0.00  0.00    +0.000 OA
ATOM     16  H16 UNL     1     -15.686  33.043  42.939  0.00  0.00    +0.000 HD
ENDBRANCH   9  15
ENDBRANCH   1  12
BRANCH   4  17
ATOM     17  O3  UNL     1     -11.960  40.957  48.368  0.00  0.00    +0.000 OA
ATOM     18  H12 UNL     1     -11.033  41.304  48.297  0.00  0.00    +0.000 HD
ENDBRANCH   4  17
BRANCH   3  19
ATOM     19  O4  UNL     1     -10.772  38.408  48.354  0.00  0.00    +0.000 OA
ATOM     20  H13 UNL     1     -10.774  37.480  48.706  0.00  0.00    +0.000 HD
ENDBRANCH   3  19
BRANCH   2  21
ATOM     21  O5  UNL     1     -11.046  37.260  45.976  0.00  0.00    +0.000 OA
ATOM     22  H14 UNL     1     -10.843  36.331  46.259  0.00  0.00    +0.000 HD
ENDBRANCH   2  21
BRANCH   5  23
ATOM     23  C12 UNL     1     -14.544  41.032  47.516  0.00  0.00    +0.000 C 
BRANCH  23  24
ATOM     24  O2  UNL     1     -15.528  41.659  46.740  0.00  0.00    +0.000 OA
ATOM     25  H11 UNL     1     -16.235  41.950  47.373  0.00  0.00    +0.000 HD
ENDBRANCH  23  24
ENDBRANCH   5  23
TORSDOF 8
ENDMDL
MODEL 8
REMARK VINA RESULT:      -4.1      1.688      6.614
REMARK  Name = .\Catechins.pdb
REMARK  8 active torsions:
REMARK  status: ('A' for Active; 'I' for Inactive)
REMARK    1  A    between atoms: C3_3  and  O7_19
REMARK    2  A    between atoms: C4_4  and  O6_18
REMARK    3  A    between atoms: C6_6  and  C7_7
REMARK    4  A    between atoms: C8_8  and  O5_17
REMARK    5  A    between atoms: C9_9  and  O4_16
REMARK    6  A    between atoms: C10_10  and  O3_15
REMARK    7  A    between atoms: C11_11  and  C12_13
REMARK    8  A    between atoms: C12_13  and  O2_14
REMARK                            x       y       z     vdW  Elec       q    Type
REMARK                         _______ _______ _______ _____ _____    ______ ____
ROOT
ATOM      1  C7  UNL     1     -14.211  35.365  41.928  0.00  0.00    +0.000 C 
ATOM      2  C8  UNL     1     -14.542  33.876  42.209  0.00  0.00    +0.000 C 
ATOM      3  C9  UNL     1     -13.938  32.950  41.118  0.00  0.00    +0.000 C 
ATOM      4  C10 UNL     1     -13.857  33.688  39.771  0.00  0.00    +0.000 C 
ATOM      5  C11 UNL     1     -13.038  35.017  39.926  0.00  0.00    +0.000 C 
ATOM      6  O1  UNL     1     -12.957  35.463  41.277  0.00  0.00    +0.000 OA
ENDROOT
BRANCH   1  12
ATOM      7  C1  UNL     1     -15.022  35.811  44.290  0.00  0.00    +0.000 A 
ATOM      8  C2  UNL     1     -15.010  36.562  45.468  0.00  0.00    +0.000 A 
ATOM      9  C3  UNL     1     -14.159  37.669  45.591  0.00  0.00    +0.000 A 
ATOM     10  C4  UNL     1     -13.324  38.026  44.525  0.00  0.00    +0.000 A 
ATOM     11  C5  UNL     1     -13.337  37.272  43.342  0.00  0.00    +0.000 A 
ATOM     12  C6  UNL     1     -14.175  36.151  43.220  0.00  0.00    +0.000 A 
BRANCH  10  13
ATOM     13  O6  UNL     1     -12.485  39.132  44.647  0.00  0.00    +0.000 OA
ATOM     14  H15 UNL     1     -11.502  39.030  44.870  0.00  0.00    +0.000 HD
ENDBRANCH  10  13
BRANCH   9  15
ATOM     15  O7  UNL     1     -14.143  38.419  46.764  0.00  0.00    +0.000 OA
ATOM     16  H16 UNL     1     -13.275  38.751  47.170  0.00  0.00    +0.000 HD
ENDBRANCH   9  15
ENDBRANCH   1  12
BRANCH   4  17
ATOM     17  O3  UNL     1     -13.298  32.848  38.789  0.00  0.00    +0.000 OA
ATOM     18  H12 UNL     1     -12.320  32.816  38.954  0.00  0.00    +0.000 HD
ENDBRANCH   4  17
BRANCH   3  19
ATOM     19  O4  UNL     1     -14.698  31.777  40.980  0.00  0.00    +0.000 OA
ATOM     20  H13 UNL     1     -14.058  31.046  40.778  0.00  0.00    +0.000 HD
ENDBRANCH   3  19
BRANCH   2  21
ATOM     21  O5  UNL     1     -15.934  33.698  42.331  0.00  0.00    +0.000 OA
ATOM     22  H14 UNL     1     -16.182  32.894  41.807  0.00  0.00    +0.000 HD
ENDBRANCH   2  21
BRANCH   5  23
ATOM     23  C12 UNL     1     -11.605  34.893  39.389  0.00  0.00    +0.000 C 
BRANCH  23  24
ATOM     24  O2  UNL     1     -11.614  34.974  37.990  0.00  0.00    +0.000 OA
ATOM     25  H11 UNL     1     -11.640  34.039  37.659  0.00  0.00    +0.000 HD
ENDBRANCH  23  24
ENDBRANCH   5  23
TORSDOF 8
ENDMDL
MODEL 9
REMARK VINA RESULT:      -4.1      2.589      4.283
REMARK  Name = .\Catechins.pdb
REMARK  8 active torsions:
REMARK  status: ('A' for Active; 'I' for Inactive)
REMARK    1  A    between atoms: C3_3  and  O7_19
REMARK    2  A    between atoms: C4_4  and  O6_18
REMARK    3  A    between atoms: C6_6  and  C7_7
REMARK    4  A    between atoms: C8_8  and  O5_17
REMARK    5  A    between atoms: C9_9  and  O4_16
REMARK    6  A    between atoms: C10_10  and  O3_15
REMARK    7  A    between atoms: C11_11  and  C12_13
REMARK    8  A    between atoms: C12_13  and  O2_14
REMARK                            x       y       z     vdW  Elec       q    Type
REMARK                         _______ _______ _______ _____ _____    ______ ____
ROOT
ATOM      1  C7  UNL     1     -13.228  38.253  45.656  0.00  0.00    +0.000 C 
ATOM      2  C8  UNL     1     -12.199  37.708  46.682  0.00  0.00    +0.000 C 
ATOM      3  C9  UNL     1     -11.955  38.726  47.829  0.00  0.00    +0.000 C 
ATOM      4  C10 UNL     1     -12.148  40.165  47.322  0.00  0.00    +0.000 C 
ATOM      5  C11 UNL     1     -13.573  40.332  46.687  0.00  0.00    +0.000 C 
ATOM      6  O1  UNL     1     -14.163  39.090  46.313  0.00  0.00    +0.000 OA
ENDROOT
BRANCH   1  12
ATOM      7  C1  UNL     1     -13.783  36.868  43.605  0.00  0.00    +0.000 A 
ATOM      8  C2  UNL     1     -14.484  35.834  42.978  0.00  0.00    +0.000 A 
ATOM      9  C3  UNL     1     -15.374  35.038  43.712  0.00  0.00    +0.000 A 
ATOM     10  C4  UNL     1     -15.565  35.285  45.077  0.00  0.00    +0.000 A 
ATOM     11  C5  UNL     1     -14.862  36.322  45.706  0.00  0.00    +0.000 A 
ATOM     12  C6  UNL     1     -13.955  37.112  44.979  0.00  0.00    +0.000 A 
BRANCH  10  13
ATOM     13  O6  UNL     1     -16.458  34.497  45.802  0.00  0.00    +0.000 OA
ATOM     14  H15 UNL     1     -16.154  33.947  46.597  0.00  0.00    +0.000 HD
ENDBRANCH  10  13
BRANCH   9  15
ATOM     15  O7  UNL     1     -16.073  34.006  43.091  0.00  0.00    +0.000 OA
ATOM     16  H16 UNL     1     -15.739  33.579  42.234  0.00  0.00    +0.000 HD
ENDBRANCH   9  15
ENDBRANCH   1  12
BRANCH   4  17
ATOM     17  O3  UNL     1     -11.938  41.082  48.368  0.00  0.00    +0.000 OA
ATOM     18  H12 UNL     1     -11.483  41.873  47.977  0.00  0.00    +0.000 HD
ENDBRANCH   4  17
BRANCH   3  19
ATOM     19  O4  UNL     1     -10.667  38.573  48.368  0.00  0.00    +0.000 OA
ATOM     20  H13 UNL     1     -10.443  39.430  48.815  0.00  0.00    +0.000 HD
ENDBRANCH   3  19
BRANCH   2  21
ATOM     21  O5  UNL     1     -11.000  37.355  46.033  0.00  0.00    +0.000 OA
ATOM     22  H14 UNL     1     -10.280  37.930  46.399  0.00  0.00    +0.000 HD
ENDBRANCH   2  21
BRANCH   5  23
ATOM     23  C12 UNL     1     -14.555  41.051  47.624  0.00  0.00    +0.000 C 
BRANCH  23  24
ATOM     24  O2  UNL     1     -15.627  41.567  46.882  0.00  0.00    +0.000 OA
ATOM     25  H11 UNL     1     -16.100  42.199  47.483  0.00  0.00    +0.000 HD
ENDBRANCH  23  24
ENDBRANCH   5  23
TORSDOF 8
ENDMDL
