MODEL 1
REMARK VINA RESULT:      11.6      0.000      0.000
REMARK  Name = .\Catechins.pdb
REMARK  8 active torsions:
REMARK  status: ('A' for Active; 'I' for Inactive)
REMARK    1  A    between atoms: C3_3  and  O7_19
REMARK    2  A    between atoms: C4_4  and  O6_18
REMARK    3  A    between atoms: C6_6  and  C7_7
REMARK    4  A    between atoms: C8_8  and  O5_17
REMARK    5  A    between atoms: C9_9  and  O4_16
REMARK    6  A    between atoms: C10_10  and  O3_15
REMARK    7  A    between atoms: C11_11  and  C12_13
REMARK    8  A    between atoms: C12_13  and  O2_14
REMARK                            x       y       z     vdW  Elec       q    Type
REMARK                         _______ _______ _______ _____ _____    ______ ____
ROOT
ATOM      1  C7  UNL     1      -2.506  98.080  81.348  0.00  0.00    +0.000 C 
ATOM      2  C8  UNL     1      -3.522  97.283  82.208  0.00  0.00    +0.000 C 
ATOM      3  C9  UNL     1      -3.745  95.856  81.636  0.00  0.00    +0.000 C 
ATOM      4  C10 UNL     1      -3.552  95.852  80.110  0.00  0.00    +0.000 C 
ATOM      5  C11 UNL     1      -2.136  96.415  79.738  0.00  0.00    +0.000 C 
ATOM      6  O1  UNL     1      -1.558  97.195  80.781  0.00  0.00    +0.000 OA
ENDROOT
BRANCH   1  12
ATOM      7  C1  UNL     1      -0.393  99.109  82.302  0.00  0.00    +0.000 A 
ATOM      8  C2  UNL     1       0.257 100.044  83.112  0.00  0.00    +0.000 A 
ATOM      9  C3  UNL     1      -0.485 100.988  83.834  0.00  0.00    +0.000 A 
ATOM     10  C4  UNL     1      -1.883 100.989  83.747  0.00  0.00    +0.000 A 
ATOM     11  C5  UNL     1      -2.535 100.051  82.934  0.00  0.00    +0.000 A 
ATOM     12  C6  UNL     1      -1.795  99.113  82.194  0.00  0.00    +0.000 A 
BRANCH  10  13
ATOM     13  O6  UNL     1      -2.618 101.925  84.474  0.00  0.00    +0.000 OA
ATOM     14  H15 UNL     1      -3.282 101.641  85.185  0.00  0.00    +0.000 HD
ENDBRANCH  10  13
BRANCH   9  15
ATOM     15  O7  UNL     1       0.159 101.922  84.642  0.00  0.00    +0.000 OA
ATOM     16  H16 UNL     1       1.069 102.297  84.399  0.00  0.00    +0.000 HD
ENDBRANCH   9  15
ENDBRANCH   1  12
BRANCH   4  17
ATOM     17  O3  UNL     1      -3.743  94.554  79.599  0.00  0.00    +0.000 OA
ATOM     18  H12 UNL     1      -3.332  93.922  80.245  0.00  0.00    +0.000 HD
ENDBRANCH   4  17
BRANCH   3  19
ATOM     19  O4  UNL     1      -5.025  95.380  81.962  0.00  0.00    +0.000 OA
ATOM     20  H13 UNL     1      -5.595  95.530  81.164  0.00  0.00    +0.000 HD
ENDBRANCH   3  19
BRANCH   2  21
ATOM     21  O5  UNL     1      -4.732  97.994  82.322  0.00  0.00    +0.000 OA
ATOM     22  H14 UNL     1      -5.454  97.419  81.958  0.00  0.00    +0.000 HD
ENDBRANCH   2  21
BRANCH   5  23
ATOM     23  C12 UNL     1      -1.137  95.306  79.375  0.00  0.00    +0.000 C 
BRANCH  23  24
ATOM     24  O2  UNL     1       0.164  95.717  79.693  0.00  0.00    +0.000 OA
ATOM     25  H11 UNL     1       0.378  96.462  79.072  0.00  0.00    +0.000 HD
ENDBRANCH  23  24
ENDBRANCH   5  23
TORSDOF 8
ENDMDL
MODEL 2
REMARK VINA RESULT:      12.8      1.966      5.982
REMARK  Name = .\Catechins.pdb
REMARK  8 active torsions:
REMARK  status: ('A' for Active; 'I' for Inactive)
REMARK    1  A    between atoms: C3_3  and  O7_19
REMARK    2  A    between atoms: C4_4  and  O6_18
REMARK    3  A    between atoms: C6_6  and  C7_7
REMARK    4  A    between atoms: C8_8  and  O5_17
REMARK    5  A    between atoms: C9_9  and  O4_16
REMARK    6  A    between atoms: C10_10  and  O3_15
REMARK    7  A    between atoms: C11_11  and  C12_13
REMARK    8  A    between atoms: C12_13  and  O2_14
REMARK                            x       y       z     vdW  Elec       q    Type
REMARK                         _______ _______ _______ _____ _____    ______ ____
ROOT
ATOM      1  C7  UNL     1      -1.181  98.175  81.060  0.00  0.00    +0.000 C 
ATOM      2  C8  UNL     1      -1.104  98.445  82.585  0.00  0.00    +0.000 C 
ATOM      3  C9  UNL     1      -0.817  99.944  82.877  0.00  0.00    +0.000 C 
ATOM      4  C10 UNL     1       0.012 100.564  81.740  0.00  0.00    +0.000 C 
ATOM      5  C11 UNL     1      -0.717 100.367  80.365  0.00  0.00    +0.000 C 
ATOM      6  O1  UNL     1      -1.682  99.320  80.394  0.00  0.00    +0.000 OA
ENDROOT
BRANCH   1  12
ATOM      7  C1  UNL     1      -1.863  96.181  79.648  0.00  0.00    +0.000 A 
ATOM      8  C2  UNL     1      -2.715  95.108  79.374  0.00  0.00    +0.000 A 
ATOM      9  C3  UNL     1      -3.800  94.835  80.218  0.00  0.00    +0.000 A 
ATOM     10  C4  UNL     1      -4.033  95.646  81.336  0.00  0.00    +0.000 A 
ATOM     11  C5  UNL     1      -3.177  96.722  81.611  0.00  0.00    +0.000 A 
ATOM     12  C6  UNL     1      -2.077  96.990  80.778  0.00  0.00    +0.000 A 
BRANCH  10  13
ATOM     13  O6  UNL     1      -5.118  95.376  82.168  0.00  0.00    +0.000 OA
ATOM     14  H15 UNL     1      -5.195  95.790  83.090  0.00  0.00    +0.000 HD
ENDBRANCH  10  13
BRANCH   9  15
ATOM     15  O7  UNL     1      -4.651  93.766  79.948  0.00  0.00    +0.000 OA
ATOM     16  H16 UNL     1      -4.414  93.058  79.263  0.00  0.00    +0.000 HD
ENDBRANCH   9  15
ENDBRANCH   1  12
BRANCH   4  17
ATOM     17  O3  UNL     1       0.258 101.924  82.004  0.00  0.00    +0.000 OA
ATOM     18  H12 UNL     1       0.983 102.215  81.391  0.00  0.00    +0.000 HD
ENDBRANCH   4  17
BRANCH   3  19
ATOM     19  O4  UNL     1      -0.145 100.096  84.101  0.00  0.00    +0.000 OA
ATOM     20  H13 UNL     1      -0.493 100.928  84.515  0.00  0.00    +0.000 HD
ENDBRANCH   3  19
BRANCH   2  21
ATOM     21  O5  UNL     1      -0.146  97.605  83.184  0.00  0.00    +0.000 OA
ATOM     22  H14 UNL     1       0.742  98.033  83.075  0.00  0.00    +0.000 HD
ENDBRANCH   2  21
BRANCH   5  23
ATOM     23  C12 UNL     1      -1.426 101.642  79.885  0.00  0.00    +0.000 C 
BRANCH  23  24
ATOM     24  O2  UNL     1      -2.807 101.522  80.088  0.00  0.00    +0.000 OA
ATOM     25  H11 UNL     1      -3.135 102.435  80.299  0.00  0.00    +0.000 HD
ENDBRANCH  23  24
ENDBRANCH   5  23
TORSDOF 8
ENDMDL
MODEL 3
REMARK VINA RESULT:      13.5      3.028      5.266
REMARK  Name = .\Catechins.pdb
REMARK  8 active torsions:
REMARK  status: ('A' for Active; 'I' for Inactive)
REMARK    1  A    between atoms: C3_3  and  O7_19
REMARK    2  A    between atoms: C4_4  and  O6_18
REMARK    3  A    between atoms: C6_6  and  C7_7
REMARK    4  A    between atoms: C8_8  and  O5_17
REMARK    5  A    between atoms: C9_9  and  O4_16
REMARK    6  A    between atoms: C10_10  and  O3_15
REMARK    7  A    between atoms: C11_11  and  C12_13
REMARK    8  A    between atoms: C12_13  and  O2_14
REMARK                            x       y       z     vdW  Elec       q    Type
REMARK                         _______ _______ _______ _____ _____    ______ ____
ROOT
ATOM      1  C7  UNL     1      -2.481  98.812  81.301  0.00  0.00    +0.000 C 
ATOM      2  C8  UNL     1      -1.542  99.938  80.796  0.00  0.00    +0.000 C 
ATOM      3  C9  UNL     1      -2.349 101.192  80.361  0.00  0.00    +0.000 C 
ATOM      4  C10 UNL     1      -3.739 100.784  79.844  0.00  0.00    +0.000 C 
ATOM      5  C11 UNL     1      -4.501  99.946  80.930  0.00  0.00    +0.000 C 
ATOM      6  O1  UNL     1      -3.630  99.379  81.904  0.00  0.00    +0.000 OA
ENDROOT
BRANCH   1  12
ATOM      7  C1  UNL     1      -0.437  98.212  82.678  0.00  0.00    +0.000 A 
ATOM      8  C2  UNL     1       0.233  97.377  83.576  0.00  0.00    +0.000 A 
ATOM      9  C3  UNL     1      -0.407  96.247  84.102  0.00  0.00    +0.000 A 
ATOM     10  C4  UNL     1      -1.722  95.951  83.719  0.00  0.00    +0.000 A 
ATOM     11  C5  UNL     1      -2.394  96.789  82.818  0.00  0.00    +0.000 A 
ATOM     12  C6  UNL     1      -1.763  97.933  82.301  0.00  0.00    +0.000 A 
BRANCH  10  13
ATOM     13  O6  UNL     1      -2.353  94.821  84.238  0.00  0.00    +0.000 OA
ATOM     14  H15 UNL     1      -2.603  94.757  85.218  0.00  0.00    +0.000 HD
ENDBRANCH  10  13
BRANCH   9  15
ATOM     15  O7  UNL     1       0.257  95.413  84.998  0.00  0.00    +0.000 OA
ATOM     16  H16 UNL     1      -0.165  94.558  85.340  0.00  0.00    +0.000 HD
ENDBRANCH   9  15
ENDBRANCH   1  12
BRANCH   4  17
ATOM     17  O3  UNL     1      -4.470 101.924  79.463  0.00  0.00    +0.000 OA
ATOM     18  H12 UNL     1      -5.271 101.967  80.048  0.00  0.00    +0.000 HD
ENDBRANCH   4  17
BRANCH   3  19
ATOM     19  O4  UNL     1      -1.660 101.914  79.374  0.00  0.00    +0.000 OA
ATOM     20  H13 UNL     1      -1.455 101.273  78.644  0.00  0.00    +0.000 HD
ENDBRANCH   3  19
BRANCH   2  21
ATOM     21  O5  UNL     1      -0.720  99.461  79.757  0.00  0.00    +0.000 OA
ATOM     22  H14 UNL     1      -0.886  98.487  79.664  0.00  0.00    +0.000 HD
ENDBRANCH   2  21
BRANCH   5  23
ATOM     23  C12 UNL     1      -5.560 100.772  81.675  0.00  0.00    +0.000 C 
BRANCH  23  24
ATOM     24  O2  UNL     1      -4.947 101.840  82.342  0.00  0.00    +0.000 OA
ATOM     25  H11 UNL     1      -3.971 101.737  82.190  0.00  0.00    +0.000 HD
ENDBRANCH  23  24
ENDBRANCH   5  23
TORSDOF 8
ENDMDL
