MODEL 1
REMARK VINA RESULT:      -8.0      0.000      0.000
REMARK  Name = .\Catechins.pdb
REMARK  8 active torsions:
REMARK  status: ('A' for Active; 'I' for Inactive)
REMARK    1  A    between atoms: C3_3  and  O7_19
REMARK    2  A    between atoms: C4_4  and  O6_18
REMARK    3  A    between atoms: C6_6  and  C7_7
REMARK    4  A    between atoms: C8_8  and  O5_17
REMARK    5  A    between atoms: C9_9  and  O4_16
REMARK    6  A    between atoms: C10_10  and  O3_15
REMARK    7  A    between atoms: C11_11  and  C12_13
REMARK    8  A    between atoms: C12_13  and  O2_14
REMARK                            x       y       z     vdW  Elec       q    Type
REMARK                         _______ _______ _______ _____ _____    ______ ____
ROOT
ATOM      1  C7  UNL     1       2.193  79.965 104.726  0.00  0.00    +0.000 C 
ATOM      2  C8  UNL     1       1.495  79.517 103.415  0.00  0.00    +0.000 C 
ATOM      3  C9  UNL     1       2.214  78.292 102.786  0.00  0.00    +0.000 C 
ATOM      4  C10 UNL     1       3.714  78.315 103.127  0.00  0.00    +0.000 C 
ATOM      5  C11 UNL     1       3.918  78.376 104.681  0.00  0.00    +0.000 C 
ATOM      6  O1  UNL     1       2.764  78.843 105.374  0.00  0.00    +0.000 OA
ENDROOT
BRANCH   1  12
ATOM      7  C1  UNL     1       0.336  81.635 105.170  0.00  0.00    +0.000 A 
ATOM      8  C2  UNL     1      -0.555  82.275 106.036  0.00  0.00    +0.000 A 
ATOM      9  C3  UNL     1      -0.587  81.933 107.395  0.00  0.00    +0.000 A 
ATOM     10  C4  UNL     1       0.283  80.952 107.886  0.00  0.00    +0.000 A 
ATOM     11  C5  UNL     1       1.176  80.309 107.017  0.00  0.00    +0.000 A 
ATOM     12  C6  UNL     1       1.200  80.635 105.650  0.00  0.00    +0.000 A 
BRANCH  10  13
ATOM     13  O6  UNL     1       0.254  80.621 109.240  0.00  0.00    +0.000 OA
ATOM     14  H15 UNL     1      -0.163  79.756 109.565  0.00  0.00    +0.000 HD
ENDBRANCH  10  13
BRANCH   9  15
ATOM     15  O7  UNL     1      -1.474  82.568 108.261  0.00  0.00    +0.000 OA
ATOM     16  H16 UNL     1      -1.149  83.186 108.996  0.00  0.00    +0.000 HD
ENDBRANCH   9  15
ENDBRANCH   1  12
BRANCH   4  17
ATOM     17  O3  UNL     1       4.358  77.197 102.565  0.00  0.00    +0.000 OA
ATOM     18  H12 UNL     1       3.648  76.577 102.252  0.00  0.00    +0.000 HD
ENDBRANCH   4  17
BRANCH   3  19
ATOM     19  O4  UNL     1       2.037  78.268 101.393  0.00  0.00    +0.000 OA
ATOM     20  H13 UNL     1       2.894  78.568 100.993  0.00  0.00    +0.000 HD
ENDBRANCH   3  19
BRANCH   2  21
ATOM     21  O5  UNL     1       1.411  80.593 102.511  0.00  0.00    +0.000 OA
ATOM     22  H14 UNL     1       1.243  80.217 101.609  0.00  0.00    +0.000 HD
ENDBRANCH   2  21
BRANCH   5  23
ATOM     23  C12 UNL     1       4.303  77.015 105.280  0.00  0.00    +0.000 C 
BRANCH  23  24
ATOM     24  O2  UNL     1       3.166  76.394 105.815  0.00  0.00    +0.000 OA
ATOM     25  H11 UNL     1       3.290  76.395 106.800  0.00  0.00    +0.000 HD
ENDBRANCH  23  24
ENDBRANCH   5  23
TORSDOF 8
ENDMDL
MODEL 2
REMARK VINA RESULT:      -7.9      2.191      6.733
REMARK  Name = .\Catechins.pdb
REMARK  8 active torsions:
REMARK  status: ('A' for Active; 'I' for Inactive)
REMARK    1  A    between atoms: C3_3  and  O7_19
REMARK    2  A    between atoms: C4_4  and  O6_18
REMARK    3  A    between atoms: C6_6  and  C7_7
REMARK    4  A    between atoms: C8_8  and  O5_17
REMARK    5  A    between atoms: C9_9  and  O4_16
REMARK    6  A    between atoms: C10_10  and  O3_15
REMARK    7  A    between atoms: C11_11  and  C12_13
REMARK    8  A    between atoms: C12_13  and  O2_14
REMARK                            x       y       z     vdW  Elec       q    Type
REMARK                         _______ _______ _______ _____ _____    ______ ____
ROOT
ATOM      1  C7  UNL     1       0.686  81.367 107.904  0.00  0.00    +0.000 C 
ATOM      2  C8  UNL     1      -0.779  81.026 108.282  0.00  0.00    +0.000 C 
ATOM      3  C9  UNL     1      -1.245  81.841 109.520  0.00  0.00    +0.000 C 
ATOM      4  C10 UNL     1      -0.052  82.150 110.441  0.00  0.00    +0.000 C 
ATOM      5  C11 UNL     1       1.075  82.893 109.642  0.00  0.00    +0.000 C 
ATOM      6  O1  UNL     1       0.965  82.716 108.233  0.00  0.00    +0.000 OA
ENDROOT
BRANCH   1  12
ATOM      7  C1  UNL     1      -0.022  81.601 105.479  0.00  0.00    +0.000 A 
ATOM      8  C2  UNL     1       0.177  81.365 104.116  0.00  0.00    +0.000 A 
ATOM      9  C3  UNL     1       1.308  80.662 103.680  0.00  0.00    +0.000 A 
ATOM     10  C4  UNL     1       2.238  80.190 104.615  0.00  0.00    +0.000 A 
ATOM     11  C5  UNL     1       2.038  80.428 105.983  0.00  0.00    +0.000 A 
ATOM     12  C6  UNL     1       0.915  81.147 106.425  0.00  0.00    +0.000 A 
BRANCH  10  13
ATOM     13  O6  UNL     1       3.358  79.484 104.178  0.00  0.00    +0.000 OA
ATOM     14  H15 UNL     1       4.185  79.391 104.756  0.00  0.00    +0.000 HD
ENDBRANCH  10  13
BRANCH   9  15
ATOM     15  O7  UNL     1       1.511  80.425 102.323  0.00  0.00    +0.000 OA
ATOM     16  H16 UNL     1       1.516  81.180 101.647  0.00  0.00    +0.000 HD
ENDBRANCH   9  15
ENDBRANCH   1  12
BRANCH   4  17
ATOM     17  O3  UNL     1      -0.478  82.898 111.553  0.00  0.00    +0.000 OA
ATOM     18  H12 UNL     1      -0.635  83.827 111.239  0.00  0.00    +0.000 HD
ENDBRANCH   4  17
BRANCH   3  19
ATOM     19  O4  UNL     1      -2.237  81.148 110.231  0.00  0.00    +0.000 OA
ATOM     20  H13 UNL     1      -1.784  80.391 110.686  0.00  0.00    +0.000 HD
ENDBRANCH   3  19
BRANCH   2  21
ATOM     21  O5  UNL     1      -0.922  79.640 108.487  0.00  0.00    +0.000 OA
ATOM     22  H14 UNL     1      -0.389  79.176 107.791  0.00  0.00    +0.000 HD
ENDBRANCH   2  21
BRANCH   5  23
ATOM     23  C12 UNL     1       1.097  84.404 109.922  0.00  0.00    +0.000 C 
BRANCH  23  24
ATOM     24  O2  UNL     1       2.196  84.989 109.280  0.00  0.00    +0.000 OA
ATOM     25  H11 UNL     1       1.881  85.251 108.376  0.00  0.00    +0.000 HD
ENDBRANCH  23  24
ENDBRANCH   5  23
TORSDOF 8
ENDMDL
MODEL 3
REMARK VINA RESULT:      -7.5      1.607      3.083
REMARK  Name = .\Catechins.pdb
REMARK  8 active torsions:
REMARK  status: ('A' for Active; 'I' for Inactive)
REMARK    1  A    between atoms: C3_3  and  O7_19
REMARK    2  A    between atoms: C4_4  and  O6_18
REMARK    3  A    between atoms: C6_6  and  C7_7
REMARK    4  A    between atoms: C8_8  and  O5_17
REMARK    5  A    between atoms: C9_9  and  O4_16
REMARK    6  A    between atoms: C10_10  and  O3_15
REMARK    7  A    between atoms: C11_11  and  C12_13
REMARK    8  A    between atoms: C12_13  and  O2_14
REMARK                            x       y       z     vdW  Elec       q    Type
REMARK                         _______ _______ _______ _____ _____    ______ ____
ROOT
ATOM      1  C7  UNL     1       1.903  78.375 103.781  0.00  0.00    +0.000 C 
ATOM      2  C8  UNL     1       3.178  78.050 104.603  0.00  0.00    +0.000 C 
ATOM      3  C9  UNL     1       4.205  77.250 103.755  0.00  0.00    +0.000 C 
ATOM      4  C10 UNL     1       3.482  76.389 102.706  0.00  0.00    +0.000 C 
ATOM      5  C11 UNL     1       2.556  77.284 101.810  0.00  0.00    +0.000 C 
ATOM      6  O1  UNL     1       2.240  78.534 102.415  0.00  0.00    +0.000 OA
ENDROOT
BRANCH   1  12
ATOM      7  C1  UNL     1       0.575  80.505 103.417  0.00  0.00    +0.000 A 
ATOM      8  C2  UNL     1       0.005  81.690 103.892  0.00  0.00    +0.000 A 
ATOM      9  C3  UNL     1       0.113  82.032 105.246  0.00  0.00    +0.000 A 
ATOM     10  C4  UNL     1       0.801  81.185 106.125  0.00  0.00    +0.000 A 
ATOM     11  C5  UNL     1       1.373  79.996 105.649  0.00  0.00    +0.000 A 
ATOM     12  C6  UNL     1       1.252  79.640 104.295  0.00  0.00    +0.000 A 
BRANCH  10  13
ATOM     13  O6  UNL     1       0.914  81.533 107.470  0.00  0.00    +0.000 OA
ATOM     14  H15 UNL     1       1.561  81.057 108.088  0.00  0.00    +0.000 HD
ENDBRANCH  10  13
BRANCH   9  15
ATOM     15  O7  UNL     1      -0.454  83.211 105.723  0.00  0.00    +0.000 OA
ATOM     16  H16 UNL     1       0.117  83.975 106.064  0.00  0.00    +0.000 HD
ENDBRANCH   9  15
ENDBRANCH   1  12
BRANCH   4  17
ATOM     17  O3  UNL     1       4.417  75.676 101.933  0.00  0.00    +0.000 OA
ATOM     18  H12 UNL     1       4.001  75.512 101.047  0.00  0.00    +0.000 HD
ENDBRANCH   4  17
BRANCH   3  19
ATOM     19  O4  UNL     1       5.008  76.440 104.574  0.00  0.00    +0.000 OA
ATOM     20  H13 UNL     1       4.470  75.635 104.792  0.00  0.00    +0.000 HD
ENDBRANCH   3  19
BRANCH   2  21
ATOM     21  O5  UNL     1       2.837  77.369 105.787  0.00  0.00    +0.000 OA
ATOM     22  H14 UNL     1       3.220  76.456 105.731  0.00  0.00    +0.000 HD
ENDBRANCH   2  21
BRANCH   5  23
ATOM     23  C12 UNL     1       3.171  77.575 100.432  0.00  0.00    +0.000 C 
BRANCH  23  24
ATOM     24  O2  UNL     1       4.491  78.021 100.587  0.00  0.00    +0.000 OA
ATOM     25  H11 UNL     1       4.474  78.998 100.411  0.00  0.00    +0.000 HD
ENDBRANCH  23  24
ENDBRANCH   5  23
TORSDOF 8
ENDMDL
MODEL 4
REMARK VINA RESULT:      -7.3      3.457      5.243
REMARK  Name = .\Catechins.pdb
REMARK  8 active torsions:
REMARK  status: ('A' for Active; 'I' for Inactive)
REMARK    1  A    between atoms: C3_3  and  O7_19
REMARK    2  A    between atoms: C4_4  and  O6_18
REMARK    3  A    between atoms: C6_6  and  C7_7
REMARK    4  A    between atoms: C8_8  and  O5_17
REMARK    5  A    between atoms: C9_9  and  O4_16
REMARK    6  A    between atoms: C10_10  and  O3_15
REMARK    7  A    between atoms: C11_11  and  C12_13
REMARK    8  A    between atoms: C12_13  and  O2_14
REMARK                            x       y       z     vdW  Elec       q    Type
REMARK                         _______ _______ _______ _____ _____    ______ ____
ROOT
ATOM      1  C7  UNL     1       4.336  76.336 102.045  0.00  0.00    +0.000 C 
ATOM      2  C8  UNL     1       3.886  76.713 100.609  0.00  0.00    +0.000 C 
ATOM      3  C9  UNL     1       4.376  75.664  99.573  0.00  0.00    +0.000 C 
ATOM      4  C10 UNL     1       5.694  75.023 100.039  0.00  0.00    +0.000 C 
ATOM      5  C11 UNL     1       5.519  74.396 101.467  0.00  0.00    +0.000 C 
ATOM      6  O1  UNL     1       4.403  74.928 102.173  0.00  0.00    +0.000 OA
ENDROOT
BRANCH   1  12
ATOM      7  C1  UNL     1       3.708  78.018 103.838  0.00  0.00    +0.000 A 
ATOM      8  C2  UNL     1       2.824  78.508 104.803  0.00  0.00    +0.000 A 
ATOM      9  C3  UNL     1       1.592  77.875 105.017  0.00  0.00    +0.000 A 
ATOM     10  C4  UNL     1       1.251  76.743 104.265  0.00  0.00    +0.000 A 
ATOM     11  C5  UNL     1       2.139  76.252 103.297  0.00  0.00    +0.000 A 
ATOM     12  C6  UNL     1       3.367  76.894 103.065  0.00  0.00    +0.000 A 
BRANCH  10  13
ATOM     13  O6  UNL     1       0.029  76.111 104.488  0.00  0.00    +0.000 OA
ATOM     14  H15 UNL     1      -0.021  75.174 104.871  0.00  0.00    +0.000 HD
ENDBRANCH  10  13
BRANCH   9  15
ATOM     15  O7  UNL     1       0.708  78.361 105.978  0.00  0.00    +0.000 OA
ATOM     16  H16 UNL     1      -0.093  77.820 106.284  0.00  0.00    +0.000 HD
ENDBRANCH   9  15
ENDBRANCH   1  12
BRANCH   4  17
ATOM     17  O3  UNL     1       6.127  74.066  99.103  0.00  0.00    +0.000 OA
ATOM     18  H12 UNL     1       7.017  74.359  98.775  0.00  0.00    +0.000 HD
ENDBRANCH   4  17
BRANCH   3  19
ATOM     19  O4  UNL     1       4.547  76.252  98.309  0.00  0.00    +0.000 OA
ATOM     20  H13 UNL     1       5.468  76.621  98.289  0.00  0.00    +0.000 HD
ENDBRANCH   3  19
BRANCH   2  21
ATOM     21  O5  UNL     1       4.322  78.012 100.284  0.00  0.00    +0.000 OA
ATOM     22  H14 UNL     1       3.586  78.465  99.799  0.00  0.00    +0.000 HD
ENDBRANCH   2  21
BRANCH   5  23
ATOM     23  C12 UNL     1       5.360  72.868 101.424  0.00  0.00    +0.000 C 
BRANCH  23  24
ATOM     24  O2  UNL     1       4.000  72.535 101.363  0.00  0.00    +0.000 OA
ATOM     25  H11 UNL     1       3.581  72.939 102.166  0.00  0.00    +0.000 HD
ENDBRANCH  23  24
ENDBRANCH   5  23
TORSDOF 8
ENDMDL
MODEL 5
REMARK VINA RESULT:      -7.2      1.657      2.490
REMARK  Name = .\Catechins.pdb
REMARK  8 active torsions:
REMARK  status: ('A' for Active; 'I' for Inactive)
REMARK    1  A    between atoms: C3_3  and  O7_19
REMARK    2  A    between atoms: C4_4  and  O6_18
REMARK    3  A    between atoms: C6_6  and  C7_7
REMARK    4  A    between atoms: C8_8  and  O5_17
REMARK    5  A    between atoms: C9_9  and  O4_16
REMARK    6  A    between atoms: C10_10  and  O3_15
REMARK    7  A    between atoms: C11_11  and  C12_13
REMARK    8  A    between atoms: C12_13  and  O2_14
REMARK                            x       y       z     vdW  Elec       q    Type
REMARK                         _______ _______ _______ _____ _____    ______ ____
ROOT
ATOM      1  C7  UNL     1       1.356  80.643 106.212  0.00  0.00    +0.000 C 
ATOM      2  C8  UNL     1       0.321  80.766 105.063  0.00  0.00    +0.000 C 
ATOM      3  C9  UNL     1       0.709  79.866 103.858  0.00  0.00    +0.000 C 
ATOM      4  C10 UNL     1       2.237  79.709 103.774  0.00  0.00    +0.000 C 
ATOM      5  C11 UNL     1       2.802  79.149 105.126  0.00  0.00    +0.000 C 
ATOM      6  O1  UNL     1       1.911  79.340 106.221  0.00  0.00    +0.000 OA
ENDROOT
BRANCH   1  12
ATOM      7  C1  UNL     1      -0.068  79.940 108.190  0.00  0.00    +0.000 A 
ATOM      8  C2  UNL     1      -0.700  80.217 109.405  0.00  0.00    +0.000 A 
ATOM      9  C3  UNL     1      -0.581  81.486 109.988  0.00  0.00    +0.000 A 
ATOM     10  C4  UNL     1       0.168  82.480 109.346  0.00  0.00    +0.000 A 
ATOM     11  C5  UNL     1       0.802  82.201 108.126  0.00  0.00    +0.000 A 
ATOM     12  C6  UNL     1       0.701  80.925 107.546  0.00  0.00    +0.000 A 
BRANCH  10  13
ATOM     13  O6  UNL     1       0.276  83.743 109.925  0.00  0.00    +0.000 OA
ATOM     14  H15 UNL     1       0.063  83.898 110.903  0.00  0.00    +0.000 HD
ENDBRANCH  10  13
BRANCH   9  15
ATOM     15  O7  UNL     1      -1.209  81.766 111.200  0.00  0.00    +0.000 OA
ATOM     16  H16 UNL     1      -1.648  81.038 111.751  0.00  0.00    +0.000 HD
ENDBRANCH   9  15
ENDBRANCH   1  12
BRANCH   4  17
ATOM     17  O3  UNL     1       2.581  78.883 102.688  0.00  0.00    +0.000 OA
ATOM     18  H12 UNL     1       3.471  78.491 102.889  0.00  0.00    +0.000 HD
ENDBRANCH   4  17
BRANCH   3  19
ATOM     19  O4  UNL     1       0.212  80.397 102.657  0.00  0.00    +0.000 OA
ATOM     20  H13 UNL     1      -0.327  81.194 102.900  0.00  0.00    +0.000 HD
ENDBRANCH   3  19
BRANCH   2  21
ATOM     21  O5  UNL     1       0.171  82.113 104.682  0.00  0.00    +0.000 OA
ATOM     22  H14 UNL     1       0.038  82.647 105.507  0.00  0.00    +0.000 HD
ENDBRANCH   2  21
BRANCH   5  23
ATOM     23  C12 UNL     1       3.135  77.651 105.050  0.00  0.00    +0.000 C 
BRANCH  23  24
ATOM     24  O2  UNL     1       2.235  76.925 105.843  0.00  0.00    +0.000 OA
ATOM     25  H11 UNL     1       2.593  76.960 106.768  0.00  0.00    +0.000 HD
ENDBRANCH  23  24
ENDBRANCH   5  23
TORSDOF 8
ENDMDL
MODEL 6
REMARK VINA RESULT:      -7.1      3.423      8.106
REMARK  Name = .\Catechins.pdb
REMARK  8 active torsions:
REMARK  status: ('A' for Active; 'I' for Inactive)
REMARK    1  A    between atoms: C3_3  and  O7_19
REMARK    2  A    between atoms: C4_4  and  O6_18
REMARK    3  A    between atoms: C6_6  and  C7_7
REMARK    4  A    between atoms: C8_8  and  O5_17
REMARK    5  A    between atoms: C9_9  and  O4_16
REMARK    6  A    between atoms: C10_10  and  O3_15
REMARK    7  A    between atoms: C11_11  and  C12_13
REMARK    8  A    between atoms: C12_13  and  O2_14
REMARK                            x       y       z     vdW  Elec       q    Type
REMARK                         _______ _______ _______ _____ _____    ______ ____
ROOT
ATOM      1  C7  UNL     1       3.550  76.862 102.330  0.00  0.00    +0.000 C 
ATOM      2  C8  UNL     1       3.617  76.327 103.784  0.00  0.00    +0.000 C 
ATOM      3  C9  UNL     1       2.347  76.722 104.587  0.00  0.00    +0.000 C 
ATOM      4  C10 UNL     1       1.775  78.052 104.069  0.00  0.00    +0.000 C 
ATOM      5  C11 UNL     1       1.486  77.958 102.530  0.00  0.00    +0.000 C 
ATOM      6  O1  UNL     1       2.203  76.905 101.895  0.00  0.00    +0.000 OA
ENDROOT
BRANCH   1  12
ATOM      7  C1  UNL     1       4.966  74.806 101.884  0.00  0.00    +0.000 A 
ATOM      8  C2  UNL     1       5.738  74.011 101.032  0.00  0.00    +0.000 A 
ATOM      9  C3  UNL     1       5.921  74.382  99.693  0.00  0.00    +0.000 A 
ATOM     10  C4  UNL     1       5.331  75.557  99.210  0.00  0.00    +0.000 A 
ATOM     11  C5  UNL     1       4.556  76.354 100.065  0.00  0.00    +0.000 A 
ATOM     12  C6  UNL     1       4.356  75.978 101.404  0.00  0.00    +0.000 A 
BRANCH  10  13
ATOM     13  O6  UNL     1       5.522  75.927  97.880  0.00  0.00    +0.000 OA
ATOM     14  H15 UNL     1       4.744  76.005  97.235  0.00  0.00    +0.000 HD
ENDBRANCH  10  13
BRANCH   9  15
ATOM     15  O7  UNL     1       6.688  73.591  98.841  0.00  0.00    +0.000 OA
ATOM     16  H16 UNL     1       7.211  73.993  98.071  0.00  0.00    +0.000 HD
ENDBRANCH   9  15
ENDBRANCH   1  12
BRANCH   4  17
ATOM     17  O3  UNL     1       0.619  78.399 104.792  0.00  0.00    +0.000 OA
ATOM     18  H12 UNL     1       0.821  78.257 105.754  0.00  0.00    +0.000 HD
ENDBRANCH   4  17
BRANCH   3  19
ATOM     19  O4  UNL     1       2.633  76.822 105.959  0.00  0.00    +0.000 OA
ATOM     20  H13 UNL     1       3.538  76.436 106.088  0.00  0.00    +0.000 HD
ENDBRANCH   3  19
BRANCH   2  21
ATOM     21  O5  UNL     1       4.793  76.771 104.417  0.00  0.00    +0.000 OA
ATOM     22  H14 UNL     1       5.005  76.131 105.144  0.00  0.00    +0.000 HD
ENDBRANCH   2  21
BRANCH   5  23
ATOM     23  C12 UNL     1      -0.006  77.760 102.221  0.00  0.00    +0.000 C 
BRANCH  23  24
ATOM     24  O2  UNL     1      -0.178  77.508 100.854  0.00  0.00    +0.000 OA
ATOM     25  H11 UNL     1      -0.110  78.388 100.400  0.00  0.00    +0.000 HD
ENDBRANCH  23  24
ENDBRANCH   5  23
TORSDOF 8
ENDMDL
MODEL 7
REMARK VINA RESULT:      -7.0      1.671      6.062
REMARK  Name = .\Catechins.pdb
REMARK  8 active torsions:
REMARK  status: ('A' for Active; 'I' for Inactive)
REMARK    1  A    between atoms: C3_3  and  O7_19
REMARK    2  A    between atoms: C4_4  and  O6_18
REMARK    3  A    between atoms: C6_6  and  C7_7
REMARK    4  A    between atoms: C8_8  and  O5_17
REMARK    5  A    between atoms: C9_9  and  O4_16
REMARK    6  A    between atoms: C10_10  and  O3_15
REMARK    7  A    between atoms: C11_11  and  C12_13
REMARK    8  A    between atoms: C12_13  and  O2_14
REMARK                            x       y       z     vdW  Elec       q    Type
REMARK                         _______ _______ _______ _____ _____    ______ ____
ROOT
ATOM      1  C7  UNL     1       0.693  79.882 106.092  0.00  0.00    +0.000 C 
ATOM      2  C8  UNL     1       0.637  81.295 105.454  0.00  0.00    +0.000 C 
ATOM      3  C9  UNL     1       0.074  82.343 106.454  0.00  0.00    +0.000 C 
ATOM      4  C10 UNL     1      -0.914  81.679 107.428  0.00  0.00    +0.000 C 
ATOM      5  C11 UNL     1      -0.228  80.478 108.166  0.00  0.00    +0.000 C 
ATOM      6  O1  UNL     1       0.926  79.994 107.485  0.00  0.00    +0.000 OA
ENDROOT
BRANCH   1  12
ATOM      7  C1  UNL     1       3.111  79.541 105.405  0.00  0.00    +0.000 A 
ATOM      8  C2  UNL     1       4.115  78.791 104.787  0.00  0.00    +0.000 A 
ATOM      9  C3  UNL     1       3.812  77.554 104.201  0.00  0.00    +0.000 A 
ATOM     10  C4  UNL     1       2.497  77.073 104.232  0.00  0.00    +0.000 A 
ATOM     11  C5  UNL     1       1.490  77.826 104.854  0.00  0.00    +0.000 A 
ATOM     12  C6  UNL     1       1.791  79.059 105.457  0.00  0.00    +0.000 A 
BRANCH  10  13
ATOM     13  O6  UNL     1       2.198  75.846 103.642  0.00  0.00    +0.000 OA
ATOM     14  H15 UNL     1       2.830  75.057 103.711  0.00  0.00    +0.000 HD
ENDBRANCH  10  13
BRANCH   9  15
ATOM     15  O7  UNL     1       4.810  76.803 103.585  0.00  0.00    +0.000 OA
ATOM     16  H16 UNL     1       5.775  77.113 103.571  0.00  0.00    +0.000 HD
ENDBRANCH   9  15
ENDBRANCH   1  12
BRANCH   4  17
ATOM     17  O3  UNL     1      -1.411  82.630 108.338  0.00  0.00    +0.000 OA
ATOM     18  H12 UNL     1      -0.628  83.068 108.762  0.00  0.00    +0.000 HD
ENDBRANCH   4  17
BRANCH   3  19
ATOM     19  O4  UNL     1      -0.554  83.397 105.773  0.00  0.00    +0.000 OA
ATOM     20  H13 UNL     1       0.161  84.034 105.513  0.00  0.00    +0.000 HD
ENDBRANCH   3  19
BRANCH   2  21
ATOM     21  O5  UNL     1      -0.106  81.264 104.258  0.00  0.00    +0.000 OA
ATOM     22  H14 UNL     1      -0.109  80.328 103.930  0.00  0.00    +0.000 HD
ENDBRANCH   2  21
BRANCH   5  23
ATOM     23  C12 UNL     1       0.192  80.830 109.602  0.00  0.00    +0.000 C 
BRANCH  23  24
ATOM     24  O2  UNL     1      -0.919  80.754 110.452  0.00  0.00    +0.000 OA
ATOM     25  H11 UNL     1      -0.851  79.881 110.918  0.00  0.00    +0.000 HD
ENDBRANCH  23  24
ENDBRANCH   5  23
TORSDOF 8
ENDMDL
MODEL 8
REMARK VINA RESULT:      -6.9      2.962      7.199
REMARK  Name = .\Catechins.pdb
REMARK  8 active torsions:
REMARK  status: ('A' for Active; 'I' for Inactive)
REMARK    1  A    between atoms: C3_3  and  O7_19
REMARK    2  A    between atoms: C4_4  and  O6_18
REMARK    3  A    between atoms: C6_6  and  C7_7
REMARK    4  A    between atoms: C8_8  and  O5_17
REMARK    5  A    between atoms: C9_9  and  O4_16
REMARK    6  A    between atoms: C10_10  and  O3_15
REMARK    7  A    between atoms: C11_11  and  C12_13
REMARK    8  A    between atoms: C12_13  and  O2_14
REMARK                            x       y       z     vdW  Elec       q    Type
REMARK                         _______ _______ _______ _____ _____    ______ ____
ROOT
ATOM      1  C7  UNL     1       3.303  77.102 103.075  0.00  0.00    +0.000 C 
ATOM      2  C8  UNL     1       1.783  76.819 103.199  0.00  0.00    +0.000 C 
ATOM      3  C9  UNL     1       1.120  77.753 104.248  0.00  0.00    +0.000 C 
ATOM      4  C10 UNL     1       2.129  78.130 105.346  0.00  0.00    +0.000 C 
ATOM      5  C11 UNL     1       3.408  78.779 104.711  0.00  0.00    +0.000 C 
ATOM      6  O1  UNL     1       3.558  78.472 103.329  0.00  0.00    +0.000 OA
ENDROOT
BRANCH   1  12
ATOM      7  C1  UNL     1       4.952  75.958 101.524  0.00  0.00    +0.000 A 
ATOM      8  C2  UNL     1       5.423  75.657 100.243  0.00  0.00    +0.000 A 
ATOM      9  C3  UNL     1       4.753  76.143  99.112  0.00  0.00    +0.000 A 
ATOM     10  C4  UNL     1       3.611  76.939  99.269  0.00  0.00    +0.000 A 
ATOM     11  C5  UNL     1       3.139  77.241 100.554  0.00  0.00    +0.000 A 
ATOM     12  C6  UNL     1       3.796  76.741 101.691  0.00  0.00    +0.000 A 
BRANCH  10  13
ATOM     13  O6  UNL     1       2.952  77.428  98.142  0.00  0.00    +0.000 OA
ATOM     14  H15 UNL     1       1.949  77.334  98.032  0.00  0.00    +0.000 HD
ENDBRANCH  10  13
BRANCH   9  15
ATOM     15  O7  UNL     1       5.219  75.844  97.834  0.00  0.00    +0.000 OA
ATOM     16  H16 UNL     1       5.547  76.568  97.206  0.00  0.00    +0.000 HD
ENDBRANCH   9  15
ENDBRANCH   1  12
BRANCH   4  17
ATOM     17  O3  UNL     1       1.526  78.986 106.287  0.00  0.00    +0.000 OA
ATOM     18  H12 UNL     1       0.645  79.253 105.917  0.00  0.00    +0.000 HD
ENDBRANCH   4  17
BRANCH   3  19
ATOM     19  O4  UNL     1      -0.009  77.144 104.818  0.00  0.00    +0.000 OA
ATOM     20  H13 UNL     1      -0.789  77.708 104.577  0.00  0.00    +0.000 HD
ENDBRANCH   3  19
BRANCH   2  21
ATOM     21  O5  UNL     1       1.560  75.460 103.496  0.00  0.00    +0.000 OA
ATOM     22  H14 UNL     1       2.098  75.235 104.299  0.00  0.00    +0.000 HD
ENDBRANCH   2  21
BRANCH   5  23
ATOM     23  C12 UNL     1       3.425  80.309 104.854  0.00  0.00    +0.000 C 
BRANCH  23  24
ATOM     24  O2  UNL     1       2.328  80.861 104.178  0.00  0.00    +0.000 OA
ATOM     25  H11 UNL     1       1.886  80.107 103.708  0.00  0.00    +0.000 HD
ENDBRANCH  23  24
ENDBRANCH   5  23
TORSDOF 8
ENDMDL
MODEL 9
REMARK VINA RESULT:      -6.9      3.203      4.801
REMARK  Name = .\Catechins.pdb
REMARK  8 active torsions:
REMARK  status: ('A' for Active; 'I' for Inactive)
REMARK    1  A    between atoms: C3_3  and  O7_19
REMARK    2  A    between atoms: C4_4  and  O6_18
REMARK    3  A    between atoms: C6_6  and  C7_7
REMARK    4  A    between atoms: C8_8  and  O5_17
REMARK    5  A    between atoms: C9_9  and  O4_16
REMARK    6  A    between atoms: C10_10  and  O3_15
REMARK    7  A    between atoms: C11_11  and  C12_13
REMARK    8  A    between atoms: C12_13  and  O2_14
REMARK                            x       y       z     vdW  Elec       q    Type
REMARK                         _______ _______ _______ _____ _____    ______ ____
ROOT
ATOM      1  C7  UNL     1       3.917  76.680 101.955  0.00  0.00    +0.000 C 
ATOM      2  C8  UNL     1       3.805  77.020 100.446  0.00  0.00    +0.000 C 
ATOM      3  C9  UNL     1       4.182  75.797  99.565  0.00  0.00    +0.000 C 
ATOM      4  C10 UNL     1       5.213  74.912 100.286  0.00  0.00    +0.000 C 
ATOM      5  C11 UNL     1       4.668  74.474 101.690  0.00  0.00    +0.000 C 
ATOM      6  O1  UNL     1       3.617  75.312 102.163  0.00  0.00    +0.000 OA
ENDROOT
BRANCH   1  12
ATOM      7  C1  UNL     1       1.594  77.572 102.451  0.00  0.00    +0.000 A 
ATOM      8  C2  UNL     1       0.725  78.392 103.176  0.00  0.00    +0.000 A 
ATOM      9  C3  UNL     1       1.216  79.196 104.214  0.00  0.00    +0.000 A 
ATOM     10  C4  UNL     1       2.583  79.181 104.519  0.00  0.00    +0.000 A 
ATOM     11  C5  UNL     1       3.454  78.358 103.791  0.00  0.00    +0.000 A 
ATOM     12  C6  UNL     1       2.965  77.537 102.761  0.00  0.00    +0.000 A 
BRANCH  10  13
ATOM     13  O6  UNL     1       3.068  79.989 105.547  0.00  0.00    +0.000 OA
ATOM     14  H15 UNL     1       2.451  80.578 106.094  0.00  0.00    +0.000 HD
ENDBRANCH  10  13
BRANCH   9  15
ATOM     15  O7  UNL     1       0.353  80.013 104.940  0.00  0.00    +0.000 OA
ATOM     16  H16 UNL     1       0.626  80.943 105.236  0.00  0.00    +0.000 HD
ENDBRANCH   9  15
ENDBRANCH   1  12
BRANCH   4  17
ATOM     17  O3  UNL     1       5.542  73.800  99.489  0.00  0.00    +0.000 OA
ATOM     18  H12 UNL     1       5.310  72.988 100.010  0.00  0.00    +0.000 HD
ENDBRANCH   4  17
BRANCH   3  19
ATOM     19  O4  UNL     1       4.688  76.212  98.322  0.00  0.00    +0.000 OA
ATOM     20  H13 UNL     1       5.673  76.097  98.364  0.00  0.00    +0.000 HD
ENDBRANCH   3  19
BRANCH   2  21
ATOM     21  O5  UNL     1       4.591  78.147 100.137  0.00  0.00    +0.000 OA
ATOM     22  H14 UNL     1       5.434  77.824  99.728  0.00  0.00    +0.000 HD
ENDBRANCH   2  21
BRANCH   5  23
ATOM     23  C12 UNL     1       4.150  73.028 101.696  0.00  0.00    +0.000 C 
BRANCH  23  24
ATOM     24  O2  UNL     1       5.215  72.143 101.907  0.00  0.00    +0.000 OA
ATOM     25  H11 UNL     1       5.695  72.077 101.041  0.00  0.00    +0.000 HD
ENDBRANCH  23  24
ENDBRANCH   5  23
TORSDOF 8
ENDMDL
