MODEL 1
REMARK VINA RESULT:      -4.8      0.000      0.000
REMARK  Name = .\Catechins.pdb
REMARK  8 active torsions:
REMARK  status: ('A' for Active; 'I' for Inactive)
REMARK    1  A    between atoms: C3_3  and  O7_19
REMARK    2  A    between atoms: C4_4  and  O6_18
REMARK    3  A    between atoms: C6_6  and  C7_7
REMARK    4  A    between atoms: C8_8  and  O5_17
REMARK    5  A    between atoms: C9_9  and  O4_16
REMARK    6  A    between atoms: C10_10  and  O3_15
REMARK    7  A    between atoms: C11_11  and  C12_13
REMARK    8  A    between atoms: C12_13  and  O2_14
REMARK                            x       y       z     vdW  Elec       q    Type
REMARK                         _______ _______ _______ _____ _____    ______ ____
ROOT
ATOM      1  C7  UNL     1      -5.696  72.120 -45.606  0.00  0.00    +0.000 C 
ATOM      2  C8  UNL     1      -5.070  72.680 -46.911  0.00  0.00    +0.000 C 
ATOM      3  C9  UNL     1      -3.712  71.993 -47.224  0.00  0.00    +0.000 C 
ATOM      4  C10 UNL     1      -3.016  71.562 -45.923  0.00  0.00    +0.000 C 
ATOM      5  C11 UNL     1      -3.959  70.633 -45.081  0.00  0.00    +0.000 C 
ATOM      6  O1  UNL     1      -5.331  70.761 -45.444  0.00  0.00    +0.000 OA
ENDROOT
BRANCH   1  12
ATOM      7  C1  UNL     1      -7.964  71.416 -46.497  0.00  0.00    +0.000 A 
ATOM      8  C2  UNL     1      -9.353  71.555 -46.558  0.00  0.00    +0.000 A 
ATOM      9  C3  UNL     1     -10.000  72.527 -45.782  0.00  0.00    +0.000 A 
ATOM     10  C4  UNL     1      -9.249  73.364 -44.948  0.00  0.00    +0.000 A 
ATOM     11  C5  UNL     1      -7.855  73.224 -44.887  0.00  0.00    +0.000 A 
ATOM     12  C6  UNL     1      -7.203  72.240 -45.649  0.00  0.00    +0.000 A 
BRANCH  10  13
ATOM     13  O6  UNL     1      -9.895  74.335 -44.184  0.00  0.00    +0.000 OA
ATOM     14  H15 UNL     1     -10.713  74.823 -44.529  0.00  0.00    +0.000 HD
ENDBRANCH  10  13
BRANCH   9  15
ATOM     15  O7  UNL     1     -11.384  72.668 -45.839  0.00  0.00    +0.000 OA
ATOM     16  H16 UNL     1     -11.837  73.553 -45.642  0.00  0.00    +0.000 HD
ENDBRANCH   9  15
ENDBRANCH   1  12
BRANCH   4  17
ATOM     17  O3  UNL     1      -1.792  70.930 -46.212  0.00  0.00    +0.000 OA
ATOM     18  H12 UNL     1      -1.485  71.274 -47.091  0.00  0.00    +0.000 HD
ENDBRANCH   4  17
BRANCH   3  19
ATOM     19  O4  UNL     1      -2.876  72.849 -47.958  0.00  0.00    +0.000 OA
ATOM     20  H13 UNL     1      -3.450  73.584 -48.298  0.00  0.00    +0.000 HD
ENDBRANCH   3  19
BRANCH   2  21
ATOM     21  O5  UNL     1      -4.941  74.080 -46.832  0.00  0.00    +0.000 OA
ATOM     22  H14 UNL     1      -5.431  74.382 -46.024  0.00  0.00    +0.000 HD
ENDBRANCH   2  21
BRANCH   5  23
ATOM     23  C12 UNL     1      -3.583  69.148 -45.199  0.00  0.00    +0.000 C 
BRANCH  23  24
ATOM     24  O2  UNL     1      -3.883  68.683 -46.486  0.00  0.00    +0.000 OA
ATOM     25  H11 UNL     1      -3.556  69.379 -47.114  0.00  0.00    +0.000 HD
ENDBRANCH  23  24
ENDBRANCH   5  23
TORSDOF 8
ENDMDL
MODEL 2
REMARK VINA RESULT:      -4.7      1.511      6.353
REMARK  Name = .\Catechins.pdb
REMARK  8 active torsions:
REMARK  status: ('A' for Active; 'I' for Inactive)
REMARK    1  A    between atoms: C3_3  and  O7_19
REMARK    2  A    between atoms: C4_4  and  O6_18
REMARK    3  A    between atoms: C6_6  and  C7_7
REMARK    4  A    between atoms: C8_8  and  O5_17
REMARK    5  A    between atoms: C9_9  and  O4_16
REMARK    6  A    between atoms: C10_10  and  O3_15
REMARK    7  A    between atoms: C11_11  and  C12_13
REMARK    8  A    between atoms: C12_13  and  O2_14
REMARK                            x       y       z     vdW  Elec       q    Type
REMARK                         _______ _______ _______ _____ _____    ______ ____
ROOT
ATOM      1  C7  UNL     1      -6.895  71.842 -45.497  0.00  0.00    +0.000 C 
ATOM      2  C8  UNL     1      -7.924  71.637 -46.639  0.00  0.00    +0.000 C 
ATOM      3  C9  UNL     1      -9.052  72.705 -46.578  0.00  0.00    +0.000 C 
ATOM      4  C10 UNL     1      -9.290  73.152 -45.126  0.00  0.00    +0.000 C 
ATOM      5  C11 UNL     1      -7.955  73.677 -44.491  0.00  0.00    +0.000 C 
ATOM      6  O1  UNL     1      -6.796  73.219 -45.181  0.00  0.00    +0.000 OA
ENDROOT
BRANCH   1  12
ATOM      7  C1  UNL     1      -4.693  72.080 -46.735  0.00  0.00    +0.000 A 
ATOM      8  C2  UNL     1      -3.455  71.575 -47.141  0.00  0.00    +0.000 A 
ATOM      9  C3  UNL     1      -3.048  70.296 -46.737  0.00  0.00    +0.000 A 
ATOM     10  C4  UNL     1      -3.890  69.520 -45.929  0.00  0.00    +0.000 A 
ATOM     11  C5  UNL     1      -5.132  70.028 -45.522  0.00  0.00    +0.000 A 
ATOM     12  C6  UNL     1      -5.537  71.317 -45.909  0.00  0.00    +0.000 A 
BRANCH  10  13
ATOM     13  O6  UNL     1      -3.485  68.245 -45.537  0.00  0.00    +0.000 OA
ATOM     14  H15 UNL     1      -2.846  68.107 -44.763  0.00  0.00    +0.000 HD
ENDBRANCH  10  13
BRANCH   9  15
ATOM     15  O7  UNL     1      -1.814  69.790 -47.139  0.00  0.00    +0.000 OA
ATOM     16  H16 UNL     1      -1.392  70.058 -48.020  0.00  0.00    +0.000 HD
ENDBRANCH   9  15
ENDBRANCH   1  12
BRANCH   4  17
ATOM     17  O3  UNL     1     -10.304  74.128 -45.078  0.00  0.00    +0.000 OA
ATOM     18  H12 UNL     1      -9.882  74.999 -45.300  0.00  0.00    +0.000 HD
ENDBRANCH   4  17
BRANCH   3  19
ATOM     19  O4  UNL     1     -10.242  72.207 -47.131  0.00  0.00    +0.000 OA
ATOM     20  H13 UNL     1     -10.423  71.341 -46.683  0.00  0.00    +0.000 HD
ENDBRANCH   3  19
BRANCH   2  21
ATOM     21  O5  UNL     1      -8.443  70.329 -46.603  0.00  0.00    +0.000 OA
ATOM     22  H14 UNL     1      -9.404  70.379 -46.841  0.00  0.00    +0.000 HD
ENDBRANCH   2  21
BRANCH   5  23
ATOM     23  C12 UNL     1      -7.891  75.211 -44.437  0.00  0.00    +0.000 C 
BRANCH  23  24
ATOM     24  O2  UNL     1      -8.482  75.669 -43.252  0.00  0.00    +0.000 OA
ATOM     25  H11 UNL     1      -9.063  76.431 -43.511  0.00  0.00    +0.000 HD
ENDBRANCH  23  24
ENDBRANCH   5  23
TORSDOF 8
ENDMDL
MODEL 3
REMARK VINA RESULT:      -4.6      1.126      2.706
REMARK  Name = .\Catechins.pdb
REMARK  8 active torsions:
REMARK  status: ('A' for Active; 'I' for Inactive)
REMARK    1  A    between atoms: C3_3  and  O7_19
REMARK    2  A    between atoms: C4_4  and  O6_18
REMARK    3  A    between atoms: C6_6  and  C7_7
REMARK    4  A    between atoms: C8_8  and  O5_17
REMARK    5  A    between atoms: C9_9  and  O4_16
REMARK    6  A    between atoms: C10_10  and  O3_15
REMARK    7  A    between atoms: C11_11  and  C12_13
REMARK    8  A    between atoms: C12_13  and  O2_14
REMARK                            x       y       z     vdW  Elec       q    Type
REMARK                         _______ _______ _______ _____ _____    ______ ____
ROOT
ATOM      1  C7  UNL     1      -5.629  71.568 -46.613  0.00  0.00    +0.000 C 
ATOM      2  C8  UNL     1      -4.872  70.970 -45.399  0.00  0.00    +0.000 C 
ATOM      3  C9  UNL     1      -3.352  71.281 -45.475  0.00  0.00    +0.000 C 
ATOM      4  C10 UNL     1      -2.899  71.393 -46.941  0.00  0.00    +0.000 C 
ATOM      5  C11 UNL     1      -3.754  72.471 -47.694  0.00  0.00    +0.000 C 
ATOM      6  O1  UNL     1      -4.988  72.755 -47.042  0.00  0.00    +0.000 OA
ENDROOT
BRANCH   1  12
ATOM      7  C1  UNL     1      -8.122  71.149 -46.825  0.00  0.00    +0.000 A 
ATOM      8  C2  UNL     1      -9.448  71.456 -46.506  0.00  0.00    +0.000 A 
ATOM      9  C3  UNL     1      -9.735  72.496 -45.611  0.00  0.00    +0.000 A 
ATOM     10  C4  UNL     1      -8.689  73.232 -45.040  0.00  0.00    +0.000 A 
ATOM     11  C5  UNL     1      -7.359  72.923 -45.360  0.00  0.00    +0.000 A 
ATOM     12  C6  UNL     1      -7.065  71.871 -46.243  0.00  0.00    +0.000 A 
BRANCH  10  13
ATOM     13  O6  UNL     1      -8.980  74.271 -44.157  0.00  0.00    +0.000 OA
ATOM     14  H15 UNL     1      -9.666  74.982 -44.382  0.00  0.00    +0.000 HD
ENDBRANCH  10  13
BRANCH   9  15
ATOM     15  O7  UNL     1     -11.055  72.804 -45.289  0.00  0.00    +0.000 OA
ATOM     16  H16 UNL     1     -11.621  73.399 -45.884  0.00  0.00    +0.000 HD
ENDBRANCH   9  15
ENDBRANCH   1  12
BRANCH   4  17
ATOM     17  O3  UNL     1      -1.524  71.686 -47.004  0.00  0.00    +0.000 OA
ATOM     18  H12 UNL     1      -1.416  72.449 -47.630  0.00  0.00    +0.000 HD
ENDBRANCH   4  17
BRANCH   3  19
ATOM     19  O4  UNL     1      -2.605  70.292 -44.814  0.00  0.00    +0.000 OA
ATOM     20  H13 UNL     1      -1.821  70.749 -44.414  0.00  0.00    +0.000 HD
ENDBRANCH   3  19
BRANCH   2  21
ATOM     21  O5  UNL     1      -5.117  69.587 -45.301  0.00  0.00    +0.000 OA
ATOM     22  H14 UNL     1      -4.243  69.121 -45.357  0.00  0.00    +0.000 HD
ENDBRANCH   2  21
BRANCH   5  23
ATOM     23  C12 UNL     1      -3.003  73.800 -47.872  0.00  0.00    +0.000 C 
BRANCH  23  24
ATOM     24  O2  UNL     1      -3.026  74.181 -49.220  0.00  0.00    +0.000 OA
ATOM     25  H11 UNL     1      -2.355  74.905 -49.314  0.00  0.00    +0.000 HD
ENDBRANCH  23  24
ENDBRANCH   5  23
TORSDOF 8
ENDMDL
MODEL 4
REMARK VINA RESULT:      -4.6      1.634      2.514
REMARK  Name = .\Catechins.pdb
REMARK  8 active torsions:
REMARK  status: ('A' for Active; 'I' for Inactive)
REMARK    1  A    between atoms: C3_3  and  O7_19
REMARK    2  A    between atoms: C4_4  and  O6_18
REMARK    3  A    between atoms: C6_6  and  C7_7
REMARK    4  A    between atoms: C8_8  and  O5_17
REMARK    5  A    between atoms: C9_9  and  O4_16
REMARK    6  A    between atoms: C10_10  and  O3_15
REMARK    7  A    between atoms: C11_11  and  C12_13
REMARK    8  A    between atoms: C12_13  and  O2_14
REMARK                            x       y       z     vdW  Elec       q    Type
REMARK                         _______ _______ _______ _____ _____    ______ ____
ROOT
ATOM      1  C7  UNL     1      -5.618  71.907 -45.407  0.00  0.00    +0.000 C 
ATOM      2  C8  UNL     1      -5.223  70.451 -45.767  0.00  0.00    +0.000 C 
ATOM      3  C9  UNL     1      -3.923  70.023 -45.033  0.00  0.00    +0.000 C 
ATOM      4  C10 UNL     1      -3.016  71.242 -44.790  0.00  0.00    +0.000 C 
ATOM      5  C11 UNL     1      -3.795  72.351 -44.000  0.00  0.00    +0.000 C 
ATOM      6  O1  UNL     1      -5.209  72.203 -44.084  0.00  0.00    +0.000 OA
ENDROOT
BRANCH   1  12
ATOM      7  C1  UNL     1      -7.873  71.267 -46.377  0.00  0.00    +0.000 A 
ATOM      8  C2  UNL     1      -9.249  71.467 -46.514  0.00  0.00    +0.000 A 
ATOM      9  C3  UNL     1      -9.885  72.503 -45.816  0.00  0.00    +0.000 A 
ATOM     10  C4  UNL     1      -9.134  73.344 -44.984  0.00  0.00    +0.000 A 
ATOM     11  C5  UNL     1      -7.753  73.143 -44.847  0.00  0.00    +0.000 A 
ATOM     12  C6  UNL     1      -7.114  72.095 -45.531  0.00  0.00    +0.000 A 
BRANCH  10  13
ATOM     13  O6  UNL     1      -9.768  74.379 -44.299  0.00  0.00    +0.000 OA
ATOM     14  H15 UNL     1     -10.739  74.614 -44.473  0.00  0.00    +0.000 HD
ENDBRANCH  10  13
BRANCH   9  15
ATOM     15  O7  UNL     1     -11.256  72.705 -45.949  0.00  0.00    +0.000 OA
ATOM     16  H16 UNL     1     -11.863  72.780 -45.140  0.00  0.00    +0.000 HD
ENDBRANCH   9  15
ENDBRANCH   1  12
BRANCH   4  17
ATOM     17  O3  UNL     1      -1.846  70.850 -44.114  0.00  0.00    +0.000 OA
ATOM     18  H12 UNL     1      -1.096  71.376 -44.498  0.00  0.00    +0.000 HD
ENDBRANCH   4  17
BRANCH   3  19
ATOM     19  O4  UNL     1      -3.231  69.046 -45.767  0.00  0.00    +0.000 OA
ATOM     20  H13 UNL     1      -3.891  68.635 -46.384  0.00  0.00    +0.000 HD
ENDBRANCH   3  19
BRANCH   2  21
ATOM     21  O5  UNL     1      -5.106  70.305 -47.163  0.00  0.00    +0.000 OA
ATOM     22  H14 UNL     1      -4.143  70.203 -47.375  0.00  0.00    +0.000 HD
ENDBRANCH   2  21
BRANCH   5  23
ATOM     23  C12 UNL     1      -3.417  72.389 -42.511  0.00  0.00    +0.000 C 
BRANCH  23  24
ATOM     24  O2  UNL     1      -2.217  73.092 -42.344  0.00  0.00    +0.000 OA
ATOM     25  H11 UNL     1      -1.616  72.789 -43.074  0.00  0.00    +0.000 HD
ENDBRANCH  23  24
ENDBRANCH   5  23
TORSDOF 8
ENDMDL
MODEL 5
REMARK VINA RESULT:      -4.5      2.016      3.054
REMARK  Name = .\Catechins.pdb
REMARK  8 active torsions:
REMARK  status: ('A' for Active; 'I' for Inactive)
REMARK    1  A    between atoms: C3_3  and  O7_19
REMARK    2  A    between atoms: C4_4  and  O6_18
REMARK    3  A    between atoms: C6_6  and  C7_7
REMARK    4  A    between atoms: C8_8  and  O5_17
REMARK    5  A    between atoms: C9_9  and  O4_16
REMARK    6  A    between atoms: C10_10  and  O3_15
REMARK    7  A    between atoms: C11_11  and  C12_13
REMARK    8  A    between atoms: C12_13  and  O2_14
REMARK                            x       y       z     vdW  Elec       q    Type
REMARK                         _______ _______ _______ _____ _____    ______ ____
ROOT
ATOM      1  C7  UNL     1      -4.954  71.614 -45.700  0.00  0.00    +0.000 C 
ATOM      2  C8  UNL     1      -4.803  72.058 -44.221  0.00  0.00    +0.000 C 
ATOM      3  C9  UNL     1      -3.309  72.265 -43.847  0.00  0.00    +0.000 C 
ATOM      4  C10 UNL     1      -2.412  71.331 -44.675  0.00  0.00    +0.000 C 
ATOM      5  C11 UNL     1      -2.665  71.551 -46.208  0.00  0.00    +0.000 C 
ATOM      6  O1  UNL     1      -3.914  72.178 -46.479  0.00  0.00    +0.000 OA
ENDROOT
BRANCH   1  12
ATOM      7  C1  UNL     1      -6.430  73.283 -46.913  0.00  0.00    +0.000 A 
ATOM      8  C2  UNL     1      -7.677  73.699 -47.387  0.00  0.00    +0.000 A 
ATOM      9  C3  UNL     1      -8.809  72.895 -47.192  0.00  0.00    +0.000 A 
ATOM     10  C4  UNL     1      -8.688  71.675 -46.515  0.00  0.00    +0.000 A 
ATOM     11  C5  UNL     1      -7.436  71.259 -46.040  0.00  0.00    +0.000 A 
ATOM     12  C6  UNL     1      -6.294  72.052 -46.248  0.00  0.00    +0.000 A 
BRANCH  10  13
ATOM     13  O6  UNL     1      -9.817  70.882 -46.316  0.00  0.00    +0.000 OA
ATOM     14  H15 UNL     1     -10.681  71.272 -45.956  0.00  0.00    +0.000 HD
ENDBRANCH  10  13
BRANCH   9  15
ATOM     15  O7  UNL     1     -10.054  73.305 -47.664  0.00  0.00    +0.000 OA
ATOM     16  H16 UNL     1     -10.893  73.202 -47.105  0.00  0.00    +0.000 HD
ENDBRANCH   9  15
ENDBRANCH   1  12
BRANCH   4  17
ATOM     17  O3  UNL     1      -1.060  71.531 -44.340  0.00  0.00    +0.000 OA
ATOM     18  H12 UNL     1      -0.516  71.055 -45.021  0.00  0.00    +0.000 HD
ENDBRANCH   4  17
BRANCH   3  19
ATOM     19  O4  UNL     1      -3.102  72.042 -42.476  0.00  0.00    +0.000 OA
ATOM     20  H13 UNL     1      -2.124  71.923 -42.352  0.00  0.00    +0.000 HD
ENDBRANCH   3  19
BRANCH   2  21
ATOM     21  O5  UNL     1      -5.432  71.133 -43.366  0.00  0.00    +0.000 OA
ATOM     22  H14 UNL     1      -5.019  71.224 -42.468  0.00  0.00    +0.000 HD
ENDBRANCH   2  21
BRANCH   5  23
ATOM     23  C12 UNL     1      -1.565  72.393 -46.872  0.00  0.00    +0.000 C 
BRANCH  23  24
ATOM     24  O2  UNL     1      -0.426  71.605 -47.082  0.00  0.00    +0.000 OA
ATOM     25  H11 UNL     1      -0.435  71.358 -48.044  0.00  0.00    +0.000 HD
ENDBRANCH  23  24
ENDBRANCH   5  23
TORSDOF 8
ENDMDL
MODEL 6
REMARK VINA RESULT:      -4.5      1.573      6.071
REMARK  Name = .\Catechins.pdb
REMARK  8 active torsions:
REMARK  status: ('A' for Active; 'I' for Inactive)
REMARK    1  A    between atoms: C3_3  and  O7_19
REMARK    2  A    between atoms: C4_4  and  O6_18
REMARK    3  A    between atoms: C6_6  and  C7_7
REMARK    4  A    between atoms: C8_8  and  O5_17
REMARK    5  A    between atoms: C9_9  and  O4_16
REMARK    6  A    between atoms: C10_10  and  O3_15
REMARK    7  A    between atoms: C11_11  and  C12_13
REMARK    8  A    between atoms: C12_13  and  O2_14
REMARK                            x       y       z     vdW  Elec       q    Type
REMARK                         _______ _______ _______ _____ _____    ______ ____
ROOT
ATOM      1  C7  UNL     1      -6.512  72.719 -46.004  0.00  0.00    +0.000 C 
ATOM      2  C8  UNL     1      -6.695  73.413 -44.629  0.00  0.00    +0.000 C 
ATOM      3  C9  UNL     1      -8.111  74.040 -44.499  0.00  0.00    +0.000 C 
ATOM      4  C10 UNL     1      -8.638  74.468 -45.879  0.00  0.00    +0.000 C 
ATOM      5  C11 UNL     1      -8.627  73.249 -46.868  0.00  0.00    +0.000 C 
ATOM      6  O1  UNL     1      -7.754  72.205 -46.451  0.00  0.00    +0.000 OA
ENDROOT
BRANCH   1  12
ATOM      7  C1  UNL     1      -5.716  70.524 -45.012  0.00  0.00    +0.000 A 
ATOM      8  C2  UNL     1      -4.766  69.506 -44.893  0.00  0.00    +0.000 A 
ATOM      9  C3  UNL     1      -3.586  69.550 -45.649  0.00  0.00    +0.000 A 
ATOM     10  C4  UNL     1      -3.359  70.622 -46.522  0.00  0.00    +0.000 A 
ATOM     11  C5  UNL     1      -4.313  71.643 -46.641  0.00  0.00    +0.000 A 
ATOM     12  C6  UNL     1      -5.505  71.595 -45.898  0.00  0.00    +0.000 A 
BRANCH  10  13
ATOM     13  O6  UNL     1      -2.181  70.666 -47.266  0.00  0.00    +0.000 OA
ATOM     14  H15 UNL     1      -2.129  70.276 -48.200  0.00  0.00    +0.000 HD
ENDBRANCH  10  13
BRANCH   9  15
ATOM     15  O7  UNL     1      -2.637  68.537 -45.534  0.00  0.00    +0.000 OA
ATOM     16  H16 UNL     1      -2.416  68.116 -44.639  0.00  0.00    +0.000 HD
ENDBRANCH   9  15
ENDBRANCH   1  12
BRANCH   4  17
ATOM     17  O3  UNL     1      -9.925  75.023 -45.757  0.00  0.00    +0.000 OA
ATOM     18  H12 UNL     1      -9.810  75.976 -45.504  0.00  0.00    +0.000 HD
ENDBRANCH   4  17
BRANCH   3  19
ATOM     19  O4  UNL     1      -8.093  75.141 -43.628  0.00  0.00    +0.000 OA
ATOM     20  H13 UNL     1      -7.525  75.833 -44.056  0.00  0.00    +0.000 HD
ENDBRANCH   3  19
BRANCH   2  21
ATOM     21  O5  UNL     1      -5.681  74.369 -44.424  0.00  0.00    +0.000 OA
ATOM     22  H14 UNL     1      -6.094  75.158 -43.988  0.00  0.00    +0.000 HD
ENDBRANCH   2  21
BRANCH   5  23
ATOM     23  C12 UNL     1     -10.023  72.639 -47.067  0.00  0.00    +0.000 C 
BRANCH  23  24
ATOM     24  O2  UNL     1     -10.372  71.877 -45.945  0.00  0.00    +0.000 OA
ATOM     25  H11 UNL     1      -9.944  70.990 -46.070  0.00  0.00    +0.000 HD
ENDBRANCH  23  24
ENDBRANCH   5  23
TORSDOF 8
ENDMDL
MODEL 7
REMARK VINA RESULT:      -4.4      1.547      6.356
REMARK  Name = .\Catechins.pdb
REMARK  8 active torsions:
REMARK  status: ('A' for Active; 'I' for Inactive)
REMARK    1  A    between atoms: C3_3  and  O7_19
REMARK    2  A    between atoms: C4_4  and  O6_18
REMARK    3  A    between atoms: C6_6  and  C7_7
REMARK    4  A    between atoms: C8_8  and  O5_17
REMARK    5  A    between atoms: C9_9  and  O4_16
REMARK    6  A    between atoms: C10_10  and  O3_15
REMARK    7  A    between atoms: C11_11  and  C12_13
REMARK    8  A    between atoms: C12_13  and  O2_14
REMARK                            x       y       z     vdW  Elec       q    Type
REMARK                         _______ _______ _______ _____ _____    ______ ____
ROOT
ATOM      1  C7  UNL     1      -7.662  72.011 -45.464  0.00  0.00    +0.000 C 
ATOM      2  C8  UNL     1      -8.661  71.823 -46.637  0.00  0.00    +0.000 C 
ATOM      3  C9  UNL     1      -9.776  72.904 -46.605  0.00  0.00    +0.000 C 
ATOM      4  C10 UNL     1     -10.051  73.350 -45.158  0.00  0.00    +0.000 C 
ATOM      5  C11 UNL     1      -8.729  73.855 -44.483  0.00  0.00    +0.000 C 
ATOM      6  O1  UNL     1      -7.556  73.385 -45.140  0.00  0.00    +0.000 OA
ENDROOT
BRANCH   1  12
ATOM      7  C1  UNL     1      -5.807  70.295 -45.244  0.00  0.00    +0.000 A 
ATOM      8  C2  UNL     1      -4.534  69.819 -45.568  0.00  0.00    +0.000 A 
ATOM      9  C3  UNL     1      -3.731  70.515 -46.482  0.00  0.00    +0.000 A 
ATOM     10  C4  UNL     1      -4.207  71.695 -47.067  0.00  0.00    +0.000 A 
ATOM     11  C5  UNL     1      -5.485  72.173 -46.741  0.00  0.00    +0.000 A 
ATOM     12  C6  UNL     1      -6.300  71.469 -45.839  0.00  0.00    +0.000 A 
BRANCH  10  13
ATOM     13  O6  UNL     1      -3.402  72.390 -47.969  0.00  0.00    +0.000 OA
ATOM     14  H15 UNL     1      -2.393  72.399 -47.881  0.00  0.00    +0.000 HD
ENDBRANCH  10  13
BRANCH   9  15
ATOM     15  O7  UNL     1      -2.462  70.043 -46.808  0.00  0.00    +0.000 OA
ATOM     16  H16 UNL     1      -1.952  70.400 -47.608  0.00  0.00    +0.000 HD
ENDBRANCH   9  15
ENDBRANCH   1  12
BRANCH   4  17
ATOM     17  O3  UNL     1     -11.053  74.337 -45.136  0.00  0.00    +0.000 OA
ATOM     18  H12 UNL     1     -11.844  73.962 -45.605  0.00  0.00    +0.000 HD
ENDBRANCH   4  17
BRANCH   3  19
ATOM     19  O4  UNL     1     -10.956  72.423 -47.194  0.00  0.00    +0.000 OA
ATOM     20  H13 UNL     1     -10.871  71.435 -47.235  0.00  0.00    +0.000 HD
ENDBRANCH   3  19
BRANCH   2  21
ATOM     21  O5  UNL     1      -9.196  70.520 -46.620  0.00  0.00    +0.000 OA
ATOM     22  H14 UNL     1      -9.726  70.423 -45.787  0.00  0.00    +0.000 HD
ENDBRANCH   2  21
BRANCH   5  23
ATOM     23  C12 UNL     1      -8.647  75.388 -44.421  0.00  0.00    +0.000 C 
BRANCH  23  24
ATOM     24  O2  UNL     1      -8.381  75.796 -43.108  0.00  0.00    +0.000 OA
ATOM     25  H11 UNL     1      -7.789  75.102 -42.717  0.00  0.00    +0.000 HD
ENDBRANCH  23  24
ENDBRANCH   5  23
TORSDOF 8
ENDMDL
MODEL 8
REMARK VINA RESULT:      -4.3      1.231      1.856
REMARK  Name = .\Catechins.pdb
REMARK  8 active torsions:
REMARK  status: ('A' for Active; 'I' for Inactive)
REMARK    1  A    between atoms: C3_3  and  O7_19
REMARK    2  A    between atoms: C4_4  and  O6_18
REMARK    3  A    between atoms: C6_6  and  C7_7
REMARK    4  A    between atoms: C8_8  and  O5_17
REMARK    5  A    between atoms: C9_9  and  O4_16
REMARK    6  A    between atoms: C10_10  and  O3_15
REMARK    7  A    between atoms: C11_11  and  C12_13
REMARK    8  A    between atoms: C12_13  and  O2_14
REMARK                            x       y       z     vdW  Elec       q    Type
REMARK                         _______ _______ _______ _____ _____    ______ ____
ROOT
ATOM      1  C7  UNL     1      -5.040  72.384 -45.800  0.00  0.00    +0.000 C 
ATOM      2  C8  UNL     1      -4.465  73.045 -47.081  0.00  0.00    +0.000 C 
ATOM      3  C9  UNL     1      -3.014  72.566 -47.358  0.00  0.00    +0.000 C 
ATOM      4  C10 UNL     1      -2.299  72.225 -46.040  0.00  0.00    +0.000 C 
ATOM      5  C11 UNL     1      -3.121  71.158 -45.235  0.00  0.00    +0.000 C 
ATOM      6  O1  UNL     1      -4.486  71.091 -45.638  0.00  0.00    +0.000 OA
ENDROOT
BRANCH   1  12
ATOM      7  C1  UNL     1      -7.361  73.348 -45.459  0.00  0.00    +0.000 A 
ATOM      8  C2  UNL     1      -8.753  73.237 -45.510  0.00  0.00    +0.000 A 
ATOM      9  C3  UNL     1      -9.351  72.059 -45.978  0.00  0.00    +0.000 A 
ATOM     10  C4  UNL     1      -8.548  70.988 -46.390  0.00  0.00    +0.000 A 
ATOM     11  C5  UNL     1      -7.151  71.099 -46.339  0.00  0.00    +0.000 A 
ATOM     12  C6  UNL     1      -6.546  72.285 -45.887  0.00  0.00    +0.000 A 
BRANCH  10  13
ATOM     13  O6  UNL     1      -9.146  69.814 -46.846  0.00  0.00    +0.000 OA
ATOM     14  H15 UNL     1      -9.895  69.366 -46.331  0.00  0.00    +0.000 HD
ENDBRANCH  10  13
BRANCH   9  15
ATOM     15  O7  UNL     1     -10.738  71.945 -46.030  0.00  0.00    +0.000 OA
ATOM     16  H16 UNL     1     -11.190  71.176 -46.512  0.00  0.00    +0.000 HD
ENDBRANCH   9  15
ENDBRANCH   1  12
BRANCH   4  17
ATOM     17  O3  UNL     1      -0.989  71.780 -46.298  0.00  0.00    +0.000 OA
ATOM     18  H12 UNL     1      -0.957  70.814 -46.072  0.00  0.00    +0.000 HD
ENDBRANCH   4  17
BRANCH   3  19
ATOM     19  O4  UNL     1      -2.290  73.544 -48.060  0.00  0.00    +0.000 OA
ATOM     20  H13 UNL     1      -1.376  73.554 -47.672  0.00  0.00    +0.000 HD
ENDBRANCH   3  19
BRANCH   2  21
ATOM     21  O5  UNL     1      -4.543  74.448 -46.986  0.00  0.00    +0.000 OA
ATOM     22  H14 UNL     1      -5.272  74.751 -47.586  0.00  0.00    +0.000 HD
ENDBRANCH   2  21
BRANCH   5  23
ATOM     23  C12 UNL     1      -2.530  69.745 -45.354  0.00  0.00    +0.000 C 
BRANCH  23  24
ATOM     24  O2  UNL     1      -2.733  69.253 -46.650  0.00  0.00    +0.000 OA
ATOM     25  H11 UNL     1      -2.701  68.263 -46.577  0.00  0.00    +0.000 HD
ENDBRANCH  23  24
ENDBRANCH   5  23
TORSDOF 8
ENDMDL
MODEL 9
REMARK VINA RESULT:      -4.3      2.084      6.468
REMARK  Name = .\Catechins.pdb
REMARK  8 active torsions:
REMARK  status: ('A' for Active; 'I' for Inactive)
REMARK    1  A    between atoms: C3_3  and  O7_19
REMARK    2  A    between atoms: C4_4  and  O6_18
REMARK    3  A    between atoms: C6_6  and  C7_7
REMARK    4  A    between atoms: C8_8  and  O5_17
REMARK    5  A    between atoms: C9_9  and  O4_16
REMARK    6  A    between atoms: C10_10  and  O3_15
REMARK    7  A    between atoms: C11_11  and  C12_13
REMARK    8  A    between atoms: C12_13  and  O2_14
REMARK                            x       y       z     vdW  Elec       q    Type
REMARK                         _______ _______ _______ _____ _____    ______ ____
ROOT
ATOM      1  C7  UNL     1      -8.166  73.634 -46.177  0.00  0.00    +0.000 C 
ATOM      2  C8  UNL     1      -8.720  73.726 -44.731  0.00  0.00    +0.000 C 
ATOM      3  C9  UNL     1     -10.191  74.224 -44.723  0.00  0.00    +0.000 C 
ATOM      4  C10 UNL     1     -10.451  75.152 -45.922  0.00  0.00    +0.000 C 
ATOM      5  C11 UNL     1     -10.089  74.423 -47.263  0.00  0.00    +0.000 C 
ATOM      6  O1  UNL     1      -9.214  73.315 -47.073  0.00  0.00    +0.000 OA
ENDROOT
BRANCH   1  12
ATOM      7  C1  UNL     1      -6.411  72.339 -47.472  0.00  0.00    +0.000 A 
ATOM      8  C2  UNL     1      -5.438  71.340 -47.554  0.00  0.00    +0.000 A 
ATOM      9  C3  UNL     1      -5.134  70.557 -46.432  0.00  0.00    +0.000 A 
ATOM     10  C4  UNL     1      -5.813  70.776 -45.226  0.00  0.00    +0.000 A 
ATOM     11  C5  UNL     1      -6.789  71.780 -45.145  0.00  0.00    +0.000 A 
ATOM     12  C6  UNL     1      -7.085  72.579 -46.262  0.00  0.00    +0.000 A 
BRANCH  10  13
ATOM     13  O6  UNL     1      -5.513  69.990 -44.115  0.00  0.00    +0.000 OA
ATOM     14  H15 UNL     1      -4.676  69.420 -44.078  0.00  0.00    +0.000 HD
ENDBRANCH  10  13
BRANCH   9  15
ATOM     15  O7  UNL     1      -4.164  69.561 -46.509  0.00  0.00    +0.000 OA
ATOM     16  H16 UNL     1      -4.376  68.641 -46.879  0.00  0.00    +0.000 HD
ENDBRANCH   9  15
ENDBRANCH   1  12
BRANCH   4  17
ATOM     17  O3  UNL     1     -11.788  75.590 -45.916  0.00  0.00    +0.000 OA
ATOM     18  H12 UNL     1     -12.277  75.049 -46.590  0.00  0.00    +0.000 HD
ENDBRANCH   4  17
BRANCH   3  19
ATOM     19  O4  UNL     1     -10.487  74.892 -43.523  0.00  0.00    +0.000 OA
ATOM     20  H13 UNL     1      -9.805  75.605 -43.419  0.00  0.00    +0.000 HD
ENDBRANCH   3  19
BRANCH   2  21
ATOM     21  O5  UNL     1      -7.889  74.542 -43.938  0.00  0.00    +0.000 OA
ATOM     22  H14 UNL     1      -8.470  75.043 -43.309  0.00  0.00    +0.000 HD
ENDBRANCH   2  21
BRANCH   5  23
ATOM     23  C12 UNL     1     -11.330  73.916 -48.012  0.00  0.00    +0.000 C 
BRANCH  23  24
ATOM     24  O2  UNL     1     -11.887  72.829 -47.325  0.00  0.00    +0.000 OA
ATOM     25  H11 UNL     1     -11.155  72.167 -47.216  0.00  0.00    +0.000 HD
ENDBRANCH  23  24
ENDBRANCH   5  23
TORSDOF 8
ENDMDL
