MODEL 1
REMARK VINA RESULT:      59.8      0.000      0.000
REMARK  Name = .\Catechins.pdb
REMARK  8 active torsions:
REMARK  status: ('A' for Active; 'I' for Inactive)
REMARK    1  A    between atoms: C3_3  and  O7_19
REMARK    2  A    between atoms: C4_4  and  O6_18
REMARK    3  A    between atoms: C6_6  and  C7_7
REMARK    4  A    between atoms: C8_8  and  O5_17
REMARK    5  A    between atoms: C9_9  and  O4_16
REMARK    6  A    between atoms: C10_10  and  O3_15
REMARK    7  A    between atoms: C11_11  and  C12_13
REMARK    8  A    between atoms: C12_13  and  O2_14
REMARK                            x       y       z     vdW  Elec       q    Type
REMARK                         _______ _______ _______ _____ _____    ______ ____
ROOT
ATOM      1  C7  UNL     1      -6.527  52.191  -5.459  0.00  0.00    +0.000 C 
ATOM      2  C8  UNL     1      -5.845  52.999  -6.594  0.00  0.00    +0.000 C 
ATOM      3  C9  UNL     1      -6.637  54.296  -6.915  0.00  0.00    +0.000 C 
ATOM      4  C10 UNL     1      -8.135  54.095  -6.633  0.00  0.00    +0.000 C 
ATOM      5  C11 UNL     1      -8.353  53.630  -5.151  0.00  0.00    +0.000 C 
ATOM      6  O1  UNL     1      -7.179  53.075  -4.566  0.00  0.00    +0.000 OA
ENDROOT
BRANCH   1  12
ATOM      7  C1  UNL     1      -5.597  49.969  -4.662  0.00  0.00    +0.000 A 
ATOM      8  C2  UNL     1      -4.668  49.219  -3.936  0.00  0.00    +0.000 A 
ATOM      9  C3  UNL     1      -3.639  49.860  -3.233  0.00  0.00    +0.000 A 
ATOM     10  C4  UNL     1      -3.546  51.258  -3.255  0.00  0.00    +0.000 A 
ATOM     11  C5  UNL     1      -4.479  52.010  -3.985  0.00  0.00    +0.000 A 
ATOM     12  C6  UNL     1      -5.503  51.371  -4.705  0.00  0.00    +0.000 A 
BRANCH  10  13
ATOM     13  O6  UNL     1      -2.526  51.892  -2.548  0.00  0.00    +0.000 OA
ATOM     14  H15 UNL     1      -2.483  52.901  -2.471  0.00  0.00    +0.000 HD
ENDBRANCH  10  13
BRANCH   9  15
ATOM     15  O7  UNL     1      -2.710  49.116  -2.509  0.00  0.00    +0.000 OA
ATOM     16  H16 UNL     1      -2.900  48.808  -1.562  0.00  0.00    +0.000 HD
ENDBRANCH   9  15
ENDBRANCH   1  12
BRANCH   4  17
ATOM     17  O3  UNL     1      -8.846  55.277  -6.914  0.00  0.00    +0.000 OA
ATOM     18  H12 UNL     1      -9.426  55.463  -6.131  0.00  0.00    +0.000 HD
ENDBRANCH   4  17
BRANCH   3  19
ATOM     19  O4  UNL     1      -6.445  54.682  -8.251  0.00  0.00    +0.000 OA
ATOM     20  H13 UNL     1      -5.516  55.027  -8.317  0.00  0.00    +0.000 HD
ENDBRANCH   3  19
BRANCH   2  21
ATOM     21  O5  UNL     1      -5.678  52.193  -7.737  0.00  0.00    +0.000 OA
ATOM     22  H14 UNL     1      -4.899  52.542  -8.241  0.00  0.00    +0.000 HD
ENDBRANCH   2  21
BRANCH   5  23
ATOM     23  C12 UNL     1      -8.835  54.769  -4.240  0.00  0.00    +0.000 C 
BRANCH  23  24
ATOM     24  O2  UNL     1      -7.828  55.103  -3.325  0.00  0.00    +0.000 OA
ATOM     25  H11 UNL     1      -8.169  54.838  -2.431  0.00  0.00    +0.000 HD
ENDBRANCH  23  24
ENDBRANCH   5  23
TORSDOF 8
ENDMDL
