MODEL 1
REMARK VINA RESULT:      -6.6      0.000      0.000
REMARK  Name = .\Catechins.pdb
REMARK  8 active torsions:
REMARK  status: ('A' for Active; 'I' for Inactive)
REMARK    1  A    between atoms: C3_3  and  O7_19
REMARK    2  A    between atoms: C4_4  and  O6_18
REMARK    3  A    between atoms: C6_6  and  C7_7
REMARK    4  A    between atoms: C8_8  and  O5_17
REMARK    5  A    between atoms: C9_9  and  O4_16
REMARK    6  A    between atoms: C10_10  and  O3_15
REMARK    7  A    between atoms: C11_11  and  C12_13
REMARK    8  A    between atoms: C12_13  and  O2_14
REMARK                            x       y       z     vdW  Elec       q    Type
REMARK                         _______ _______ _______ _____ _____    ______ ____
ROOT
ATOM      1  C7  UNL     1       2.636  53.453   8.636  0.00  0.00    +0.000 C 
ATOM      2  C8  UNL     1       1.253  53.804   9.244  0.00  0.00    +0.000 C 
ATOM      3  C9  UNL     1       0.844  52.779  10.338  0.00  0.00    +0.000 C 
ATOM      4  C10 UNL     1       1.448  51.398  10.034  0.00  0.00    +0.000 C 
ATOM      5  C11 UNL     1       3.006  51.505   9.888  0.00  0.00    +0.000 C 
ATOM      6  O1  UNL     1       3.448  52.831   9.616  0.00  0.00    +0.000 OA
ENDROOT
BRANCH   1  12
ATOM      7  C1  UNL     1       4.470  55.201   8.766  0.00  0.00    +0.000 A 
ATOM      8  C2  UNL     1       5.079  56.375   8.314  0.00  0.00    +0.000 A 
ATOM      9  C3  UNL     1       4.541  57.073   7.224  0.00  0.00    +0.000 A 
ATOM     10  C4  UNL     1       3.386  56.594   6.591  0.00  0.00    +0.000 A 
ATOM     11  C5  UNL     1       2.776  55.416   7.046  0.00  0.00    +0.000 A 
ATOM     12  C6  UNL     1       3.321  54.702   8.127  0.00  0.00    +0.000 A 
BRANCH  10  13
ATOM     13  O6  UNL     1       2.850  57.296   5.513  0.00  0.00    +0.000 OA
ATOM     14  H15 UNL     1       2.068  57.930   5.629  0.00  0.00    +0.000 HD
ENDBRANCH  10  13
BRANCH   9  15
ATOM     15  O7  UNL     1       5.145  58.243   6.768  0.00  0.00    +0.000 OA
ATOM     16  H16 UNL     1       5.936  58.654   7.251  0.00  0.00    +0.000 HD
ENDBRANCH   9  15
ENDBRANCH   1  12
BRANCH   4  17
ATOM     17  O3  UNL     1       1.084  50.477  11.035  0.00  0.00    +0.000 OA
ATOM     18  H12 UNL     1       0.104  50.562  11.168  0.00  0.00    +0.000 HD
ENDBRANCH   4  17
BRANCH   3  19
ATOM     19  O4  UNL     1      -0.554  52.684  10.437  0.00  0.00    +0.000 OA
ATOM     20  H13 UNL     1      -0.753  51.773  10.777  0.00  0.00    +0.000 HD
ENDBRANCH   3  19
BRANCH   2  21
ATOM     21  O5  UNL     1       0.281  53.899   8.229  0.00  0.00    +0.000 OA
ATOM     22  H14 UNL     1       0.726  53.695   7.366  0.00  0.00    +0.000 HD
ENDBRANCH   2  21
BRANCH   5  23
ATOM     23  C12 UNL     1       3.751  51.012  11.138  0.00  0.00    +0.000 C 
BRANCH  23  24
ATOM     24  O2  UNL     1       3.479  51.863  12.218  0.00  0.00    +0.000 OA
ATOM     25  H11 UNL     1       3.587  51.313  13.037  0.00  0.00    +0.000 HD
ENDBRANCH  23  24
ENDBRANCH   5  23
TORSDOF 8
ENDMDL
MODEL 2
REMARK VINA RESULT:      -6.5      1.448      6.048
REMARK  Name = .\Catechins.pdb
REMARK  8 active torsions:
REMARK  status: ('A' for Active; 'I' for Inactive)
REMARK    1  A    between atoms: C3_3  and  O7_19
REMARK    2  A    between atoms: C4_4  and  O6_18
REMARK    3  A    between atoms: C6_6  and  C7_7
REMARK    4  A    between atoms: C8_8  and  O5_17
REMARK    5  A    between atoms: C9_9  and  O4_16
REMARK    6  A    between atoms: C10_10  and  O3_15
REMARK    7  A    between atoms: C11_11  and  C12_13
REMARK    8  A    between atoms: C12_13  and  O2_14
REMARK                            x       y       z     vdW  Elec       q    Type
REMARK                         _______ _______ _______ _____ _____    ______ ____
ROOT
ATOM      1  C7  UNL     1       2.710  54.606   9.434  0.00  0.00    +0.000 C 
ATOM      2  C8  UNL     1       2.412  54.291   7.945  0.00  0.00    +0.000 C 
ATOM      3  C9  UNL     1       3.151  55.281   7.002  0.00  0.00    +0.000 C 
ATOM      4  C10 UNL     1       3.328  56.646   7.688  0.00  0.00    +0.000 C 
ATOM      5  C11 UNL     1       4.076  56.475   9.056  0.00  0.00    +0.000 C 
ATOM      6  O1  UNL     1       4.014  55.144   9.560  0.00  0.00    +0.000 OA
ENDROOT
BRANCH   1  12
ATOM      7  C1  UNL     1       3.745  52.717  10.774  0.00  0.00    +0.000 A 
ATOM      8  C2  UNL     1       3.634  51.540  11.519  0.00  0.00    +0.000 A 
ATOM      9  C3  UNL     1       2.375  50.974  11.763  0.00  0.00    +0.000 A 
ATOM     10  C4  UNL     1       1.225  51.590  11.252  0.00  0.00    +0.000 A 
ATOM     11  C5  UNL     1       1.337  52.772  10.505  0.00  0.00    +0.000 A 
ATOM     12  C6  UNL     1       2.595  53.352  10.273  0.00  0.00    +0.000 A 
BRANCH  10  13
ATOM     13  O6  UNL     1      -0.025  51.020  11.490  0.00  0.00    +0.000 OA
ATOM     14  H15 UNL     1      -0.867  51.583  11.514  0.00  0.00    +0.000 HD
ENDBRANCH  10  13
BRANCH   9  15
ATOM     15  O7  UNL     1       2.261  49.802  12.505  0.00  0.00    +0.000 OA
ATOM     16  H16 UNL     1       1.511  49.667  13.174  0.00  0.00    +0.000 HD
ENDBRANCH   9  15
ENDBRANCH   1  12
BRANCH   4  17
ATOM     17  O3  UNL     1       4.009  57.534   6.834  0.00  0.00    +0.000 OA
ATOM     18  H12 UNL     1       4.592  58.099   7.405  0.00  0.00    +0.000 HD
ENDBRANCH   4  17
BRANCH   3  19
ATOM     19  O4  UNL     1       2.454  55.435   5.793  0.00  0.00    +0.000 OA
ATOM     20  H13 UNL     1       3.066  55.906   5.170  0.00  0.00    +0.000 HD
ENDBRANCH   3  19
BRANCH   2  21
ATOM     21  O5  UNL     1       1.023  54.288   7.713  0.00  0.00    +0.000 OA
ATOM     22  H14 UNL     1       0.669  55.171   7.994  0.00  0.00    +0.000 HD
ENDBRANCH   2  21
BRANCH   5  23
ATOM     23  C12 UNL     1       5.557  56.874   8.973  0.00  0.00    +0.000 C 
BRANCH  23  24
ATOM     24  O2  UNL     1       5.672  58.271   8.953  0.00  0.00    +0.000 OA
ATOM     25  H11 UNL     1       4.776  58.618   8.704  0.00  0.00    +0.000 HD
ENDBRANCH  23  24
ENDBRANCH   5  23
TORSDOF 8
ENDMDL
MODEL 3
REMARK VINA RESULT:      -6.4      1.975      6.314
REMARK  Name = .\Catechins.pdb
REMARK  8 active torsions:
REMARK  status: ('A' for Active; 'I' for Inactive)
REMARK    1  A    between atoms: C3_3  and  O7_19
REMARK    2  A    between atoms: C4_4  and  O6_18
REMARK    3  A    between atoms: C6_6  and  C7_7
REMARK    4  A    between atoms: C8_8  and  O5_17
REMARK    5  A    between atoms: C9_9  and  O4_16
REMARK    6  A    between atoms: C10_10  and  O3_15
REMARK    7  A    between atoms: C11_11  and  C12_13
REMARK    8  A    between atoms: C12_13  and  O2_14
REMARK                            x       y       z     vdW  Elec       q    Type
REMARK                         _______ _______ _______ _____ _____    ______ ____
ROOT
ATOM      1  C7  UNL     1       4.024  55.219   9.528  0.00  0.00    +0.000 C 
ATOM      2  C8  UNL     1       4.048  56.410  10.523  0.00  0.00    +0.000 C 
ATOM      3  C9  UNL     1       4.565  57.705   9.837  0.00  0.00    +0.000 C 
ATOM      4  C10 UNL     1       5.558  57.359   8.714  0.00  0.00    +0.000 C 
ATOM      5  C11 UNL     1       4.896  56.378   7.685  0.00  0.00    +0.000 C 
ATOM      6  O1  UNL     1       3.768  55.693   8.219  0.00  0.00    +0.000 OA
ENDROOT
BRANCH   1  12
ATOM      7  C1  UNL     1       3.311  53.003  10.536  0.00  0.00    +0.000 A 
ATOM      8  C2  UNL     1       2.327  52.069  10.870  0.00  0.00    +0.000 A 
ATOM      9  C3  UNL     1       0.980  52.333  10.588  0.00  0.00    +0.000 A 
ATOM     10  C4  UNL     1       0.621  53.535   9.965  0.00  0.00    +0.000 A 
ATOM     11  C5  UNL     1       1.610  54.472   9.630  0.00  0.00    +0.000 A 
ATOM     12  C6  UNL     1       2.960  54.221   9.926  0.00  0.00    +0.000 A 
BRANCH  10  13
ATOM     13  O6  UNL     1      -0.719  53.790   9.679  0.00  0.00    +0.000 OA
ATOM     14  H15 UNL     1      -1.367  53.041   9.463  0.00  0.00    +0.000 HD
ENDBRANCH  10  13
BRANCH   9  15
ATOM     15  O7  UNL     1      -0.005  51.405  10.920  0.00  0.00    +0.000 OA
ATOM     16  H16 UNL     1      -0.107  50.535  10.411  0.00  0.00    +0.000 HD
ENDBRANCH   9  15
ENDBRANCH   1  12
BRANCH   4  17
ATOM     17  O3  UNL     1       6.014  58.535   8.089  0.00  0.00    +0.000 OA
ATOM     18  H12 UNL     1       6.995  58.582   8.235  0.00  0.00    +0.000 HD
ENDBRANCH   4  17
BRANCH   3  19
ATOM     19  O4  UNL     1       5.173  58.558  10.773  0.00  0.00    +0.000 OA
ATOM     20  H13 UNL     1       6.143  58.561  10.566  0.00  0.00    +0.000 HD
ENDBRANCH   3  19
BRANCH   2  21
ATOM     21  O5  UNL     1       4.809  56.083  11.661  0.00  0.00    +0.000 OA
ATOM     22  H14 UNL     1       4.885  55.095  11.699  0.00  0.00    +0.000 HD
ENDBRANCH   2  21
BRANCH   5  23
ATOM     23  C12 UNL     1       4.445  57.089   6.400  0.00  0.00    +0.000 C 
BRANCH  23  24
ATOM     24  O2  UNL     1       5.418  56.930   5.403  0.00  0.00    +0.000 OA
ATOM     25  H11 UNL     1       6.002  57.731   5.458  0.00  0.00    +0.000 HD
ENDBRANCH  23  24
ENDBRANCH   5  23
TORSDOF 8
ENDMDL
MODEL 4
REMARK VINA RESULT:      -6.3      1.721      6.324
REMARK  Name = .\Catechins.pdb
REMARK  8 active torsions:
REMARK  status: ('A' for Active; 'I' for Inactive)
REMARK    1  A    between atoms: C3_3  and  O7_19
REMARK    2  A    between atoms: C4_4  and  O6_18
REMARK    3  A    between atoms: C6_6  and  C7_7
REMARK    4  A    between atoms: C8_8  and  O5_17
REMARK    5  A    between atoms: C9_9  and  O4_16
REMARK    6  A    between atoms: C10_10  and  O3_15
REMARK    7  A    between atoms: C11_11  and  C12_13
REMARK    8  A    between atoms: C12_13  and  O2_14
REMARK                            x       y       z     vdW  Elec       q    Type
REMARK                         _______ _______ _______ _____ _____    ______ ____
ROOT
ATOM      1  C7  UNL     1       3.109  55.232   8.746  0.00  0.00    +0.000 C 
ATOM      2  C8  UNL     1       3.830  54.717   7.472  0.00  0.00    +0.000 C 
ATOM      3  C9  UNL     1       4.960  55.688   7.034  0.00  0.00    +0.000 C 
ATOM      4  C10 UNL     1       4.614  57.132   7.435  0.00  0.00    +0.000 C 
ATOM      5  C11 UNL     1       4.336  57.218   8.976  0.00  0.00    +0.000 C 
ATOM      6  O1  UNL     1       4.020  55.955   9.554  0.00  0.00    +0.000 OA
ENDROOT
BRANCH   1  12
ATOM      7  C1  UNL     1       1.158  53.802   9.511  0.00  0.00    +0.000 A 
ATOM      8  C2  UNL     1       0.631  52.753  10.268  0.00  0.00    +0.000 A 
ATOM      9  C3  UNL     1       1.473  51.969  11.069  0.00  0.00    +0.000 A 
ATOM     10  C4  UNL     1       2.845  52.243  11.113  0.00  0.00    +0.000 A 
ATOM     11  C5  UNL     1       3.374  53.296  10.352  0.00  0.00    +0.000 A 
ATOM     12  C6  UNL     1       2.537  54.075   9.534  0.00  0.00    +0.000 A 
BRANCH  10  13
ATOM     13  O6  UNL     1       3.678  51.466  11.917  0.00  0.00    +0.000 OA
ATOM     14  H15 UNL     1       4.675  51.638  11.970  0.00  0.00    +0.000 HD
ENDBRANCH  10  13
BRANCH   9  15
ATOM     15  O7  UNL     1       0.951  50.921  11.825  0.00  0.00    +0.000 OA
ATOM     16  H16 UNL     1       0.078  51.015  12.330  0.00  0.00    +0.000 HD
ENDBRANCH   9  15
ENDBRANCH   1  12
BRANCH   4  17
ATOM     17  O3  UNL     1       5.646  58.006   7.046  0.00  0.00    +0.000 OA
ATOM     18  H12 UNL     1       5.306  58.931   7.161  0.00  0.00    +0.000 HD
ENDBRANCH   4  17
BRANCH   3  19
ATOM     19  O4  UNL     1       5.177  55.611   5.649  0.00  0.00    +0.000 OA
ATOM     20  H13 UNL     1       4.498  54.983   5.290  0.00  0.00    +0.000 HD
ENDBRANCH   3  19
BRANCH   2  21
ATOM     21  O5  UNL     1       2.900  54.497   6.438  0.00  0.00    +0.000 OA
ATOM     22  H14 UNL     1       3.352  54.701   5.579  0.00  0.00    +0.000 HD
ENDBRANCH   2  21
BRANCH   5  23
ATOM     23  C12 UNL     1       5.521  57.805   9.757  0.00  0.00    +0.000 C 
BRANCH  23  24
ATOM     24  O2  UNL     1       5.449  59.204   9.748  0.00  0.00    +0.000 OA
ATOM     25  H11 UNL     1       6.039  59.507   9.010  0.00  0.00    +0.000 HD
ENDBRANCH  23  24
ENDBRANCH   5  23
TORSDOF 8
ENDMDL
MODEL 5
REMARK VINA RESULT:      -6.2      1.954      6.044
REMARK  Name = .\Catechins.pdb
REMARK  8 active torsions:
REMARK  status: ('A' for Active; 'I' for Inactive)
REMARK    1  A    between atoms: C3_3  and  O7_19
REMARK    2  A    between atoms: C4_4  and  O6_18
REMARK    3  A    between atoms: C6_6  and  C7_7
REMARK    4  A    between atoms: C8_8  and  O5_17
REMARK    5  A    between atoms: C9_9  and  O4_16
REMARK    6  A    between atoms: C10_10  and  O3_15
REMARK    7  A    between atoms: C11_11  and  C12_13
REMARK    8  A    between atoms: C12_13  and  O2_14
REMARK                            x       y       z     vdW  Elec       q    Type
REMARK                         _______ _______ _______ _____ _____    ______ ____
ROOT
ATOM      1  C7  UNL     1       4.095  54.059   9.966  0.00  0.00    +0.000 C 
ATOM      2  C8  UNL     1       3.542  55.508   9.938  0.00  0.00    +0.000 C 
ATOM      3  C9  UNL     1       4.221  56.348   8.821  0.00  0.00    +0.000 C 
ATOM      4  C10 UNL     1       5.656  55.853   8.573  0.00  0.00    +0.000 C 
ATOM      5  C11 UNL     1       5.652  54.321   8.231  0.00  0.00    +0.000 C 
ATOM      6  O1  UNL     1       4.464  53.661   8.658  0.00  0.00    +0.000 OA
ENDROOT
BRANCH   1  12
ATOM      7  C1  UNL     1       3.436  51.968  11.242  0.00  0.00    +0.000 A 
ATOM      8  C2  UNL     1       2.472  51.073  11.714  0.00  0.00    +0.000 A 
ATOM      9  C3  UNL     1       1.113  51.298  11.453  0.00  0.00    +0.000 A 
ATOM     10  C4  UNL     1       0.723  52.420  10.712  0.00  0.00    +0.000 A 
ATOM     11  C5  UNL     1       1.691  53.318  10.238  0.00  0.00    +0.000 A 
ATOM     12  C6  UNL     1       3.054  53.107  10.512  0.00  0.00    +0.000 A 
BRANCH  10  13
ATOM     13  O6  UNL     1      -0.628  52.636  10.447  0.00  0.00    +0.000 OA
ATOM     14  H15 UNL     1      -1.248  53.032  11.145  0.00  0.00    +0.000 HD
ENDBRANCH  10  13
BRANCH   9  15
ATOM     15  O7  UNL     1       0.149  50.409  11.923  0.00  0.00    +0.000 OA
ATOM     16  H16 UNL     1      -0.395  50.607  12.755  0.00  0.00    +0.000 HD
ENDBRANCH   9  15
ENDBRANCH   1  12
BRANCH   4  17
ATOM     17  O3  UNL     1       6.262  56.608   7.552  0.00  0.00    +0.000 OA
ATOM     18  H12 UNL     1       7.003  57.121   7.968  0.00  0.00    +0.000 HD
ENDBRANCH   4  17
BRANCH   3  19
ATOM     19  O4  UNL     1       4.233  57.711   9.157  0.00  0.00    +0.000 OA
ATOM     20  H13 UNL     1       3.617  58.165   8.524  0.00  0.00    +0.000 HD
ENDBRANCH   3  19
BRANCH   2  21
ATOM     21  O5  UNL     1       3.683  56.111  11.203  0.00  0.00    +0.000 OA
ATOM     22  H14 UNL     1       2.865  55.910  11.725  0.00  0.00    +0.000 HD
ENDBRANCH   2  21
BRANCH   5  23
ATOM     23  C12 UNL     1       5.822  54.052   6.729  0.00  0.00    +0.000 C 
BRANCH  23  24
ATOM     24  O2  UNL     1       4.679  54.476   6.038  0.00  0.00    +0.000 OA
ATOM     25  H11 UNL     1       3.946  54.503   6.708  0.00  0.00    +0.000 HD
ENDBRANCH  23  24
ENDBRANCH   5  23
TORSDOF 8
ENDMDL
MODEL 6
REMARK VINA RESULT:      -6.2      1.485      2.421
REMARK  Name = .\Catechins.pdb
REMARK  8 active torsions:
REMARK  status: ('A' for Active; 'I' for Inactive)
REMARK    1  A    between atoms: C3_3  and  O7_19
REMARK    2  A    between atoms: C4_4  and  O6_18
REMARK    3  A    between atoms: C6_6  and  C7_7
REMARK    4  A    between atoms: C8_8  and  O5_17
REMARK    5  A    between atoms: C9_9  and  O4_16
REMARK    6  A    between atoms: C10_10  and  O3_15
REMARK    7  A    between atoms: C11_11  and  C12_13
REMARK    8  A    between atoms: C12_13  and  O2_14
REMARK                            x       y       z     vdW  Elec       q    Type
REMARK                         _______ _______ _______ _____ _____    ______ ____
ROOT
ATOM      1  C7  UNL     1       2.863  54.187   8.635  0.00  0.00    +0.000 C 
ATOM      2  C8  UNL     1       3.651  53.852   9.929  0.00  0.00    +0.000 C 
ATOM      3  C9  UNL     1       3.467  52.362  10.330  0.00  0.00    +0.000 C 
ATOM      4  C10 UNL     1       2.091  51.848   9.872  0.00  0.00    +0.000 C 
ATOM      5  C11 UNL     1       1.916  52.063   8.328  0.00  0.00    +0.000 C 
ATOM      6  O1  UNL     1       2.804  53.044   7.801  0.00  0.00    +0.000 OA
ENDROOT
BRANCH   1  12
ATOM      7  C1  UNL     1       4.774  55.824   8.311  0.00  0.00    +0.000 A 
ATOM      8  C2  UNL     1       5.366  56.898   7.642  0.00  0.00    +0.000 A 
ATOM      9  C3  UNL     1       4.717  57.497   6.554  0.00  0.00    +0.000 A 
ATOM     10  C4  UNL     1       3.467  57.019   6.141  0.00  0.00    +0.000 A 
ATOM     11  C5  UNL     1       2.873  55.940   6.812  0.00  0.00    +0.000 A 
ATOM     12  C6  UNL     1       3.527  55.325   7.893  0.00  0.00    +0.000 A 
BRANCH  10  13
ATOM     13  O6  UNL     1       2.820  57.622   5.063  0.00  0.00    +0.000 OA
ATOM     14  H15 UNL     1       2.542  57.091   4.247  0.00  0.00    +0.000 HD
ENDBRANCH  10  13
BRANCH   9  15
ATOM     15  O7  UNL     1       5.305  58.567   5.884  0.00  0.00    +0.000 OA
ATOM     16  H16 UNL     1       5.903  59.230   6.364  0.00  0.00    +0.000 HD
ENDBRANCH   9  15
ENDBRANCH   1  12
BRANCH   4  17
ATOM     17  O3  UNL     1       1.934  50.496  10.227  0.00  0.00    +0.000 OA
ATOM     18  H12 UNL     1       2.233  50.404  11.170  0.00  0.00    +0.000 HD
ENDBRANCH   4  17
BRANCH   3  19
ATOM     19  O4  UNL     1       3.605  52.197  11.718  0.00  0.00    +0.000 OA
ATOM     20  H13 UNL     1       4.201  52.925  12.032  0.00  0.00    +0.000 HD
ENDBRANCH   3  19
BRANCH   2  21
ATOM     21  O5  UNL     1       3.277  54.723  10.970  0.00  0.00    +0.000 OA
ATOM     22  H14 UNL     1       4.053  55.307  11.168  0.00  0.00    +0.000 HD
ENDBRANCH   2  21
BRANCH   5  23
ATOM     23  C12 UNL     1       2.122  50.769   7.526  0.00  0.00    +0.000 C 
BRANCH  23  24
ATOM     24  O2  UNL     1       0.974  49.969   7.613  0.00  0.00    +0.000 OA
ATOM     25  H11 UNL     1       1.269  49.104   8.000  0.00  0.00    +0.000 HD
ENDBRANCH  23  24
ENDBRANCH   5  23
TORSDOF 8
ENDMDL
MODEL 7
REMARK VINA RESULT:      -6.2      1.672      2.279
REMARK  Name = .\Catechins.pdb
REMARK  8 active torsions:
REMARK  status: ('A' for Active; 'I' for Inactive)
REMARK    1  A    between atoms: C3_3  and  O7_19
REMARK    2  A    between atoms: C4_4  and  O6_18
REMARK    3  A    between atoms: C6_6  and  C7_7
REMARK    4  A    between atoms: C8_8  and  O5_17
REMARK    5  A    between atoms: C9_9  and  O4_16
REMARK    6  A    between atoms: C10_10  and  O3_15
REMARK    7  A    between atoms: C11_11  and  C12_13
REMARK    8  A    between atoms: C12_13  and  O2_14
REMARK                            x       y       z     vdW  Elec       q    Type
REMARK                         _______ _______ _______ _____ _____    ______ ____
ROOT
ATOM      1  C7  UNL     1       2.708  53.109   9.736  0.00  0.00    +0.000 C 
ATOM      2  C8  UNL     1       1.249  53.211  10.253  0.00  0.00    +0.000 C 
ATOM      3  C9  UNL     1       0.858  51.960  11.086  0.00  0.00    +0.000 C 
ATOM      4  C10 UNL     1       1.627  50.723  10.592  0.00  0.00    +0.000 C 
ATOM      5  C11 UNL     1       3.172  50.991  10.631  0.00  0.00    +0.000 C 
ATOM      6  O1  UNL     1       3.494  52.378  10.660  0.00  0.00    +0.000 OA
ENDROOT
BRANCH   1  12
ATOM      7  C1  UNL     1       3.196  55.148   8.308  0.00  0.00    +0.000 A 
ATOM      8  C2  UNL     1       3.773  56.408   8.127  0.00  0.00    +0.000 A 
ATOM      9  C3  UNL     1       4.472  57.020   9.177  0.00  0.00    +0.000 A 
ATOM     10  C4  UNL     1       4.596  56.364  10.408  0.00  0.00    +0.000 A 
ATOM     11  C5  UNL     1       4.015  55.100  10.588  0.00  0.00    +0.000 A 
ATOM     12  C6  UNL     1       3.299  54.488   9.546  0.00  0.00    +0.000 A 
BRANCH  10  13
ATOM     13  O6  UNL     1       5.298  56.973  11.446  0.00  0.00    +0.000 OA
ATOM     14  H15 UNL     1       5.939  56.450  12.031  0.00  0.00    +0.000 HD
ENDBRANCH  10  13
BRANCH   9  15
ATOM     15  O7  UNL     1       5.048  58.276   9.001  0.00  0.00    +0.000 OA
ATOM     16  H16 UNL     1       5.176  58.677   8.078  0.00  0.00    +0.000 HD
ENDBRANCH   9  15
ENDBRANCH   1  12
BRANCH   4  17
ATOM     17  O3  UNL     1       1.278  49.595  11.358  0.00  0.00    +0.000 OA
ATOM     18  H12 UNL     1       2.091  49.030  11.433  0.00  0.00    +0.000 HD
ENDBRANCH   4  17
BRANCH   3  19
ATOM     19  O4  UNL     1      -0.525  51.726  11.020  0.00  0.00    +0.000 OA
ATOM     20  H13 UNL     1      -0.643  50.746  10.924  0.00  0.00    +0.000 HD
ENDBRANCH   3  19
BRANCH   2  21
ATOM     21  O5  UNL     1       0.362  53.420   9.179  0.00  0.00    +0.000 OA
ATOM     22  H14 UNL     1      -0.496  53.746   9.555  0.00  0.00    +0.000 HD
ENDBRANCH   2  21
BRANCH   5  23
ATOM     23  C12 UNL     1       3.856  50.328  11.836  0.00  0.00    +0.000 C 
BRANCH  23  24
ATOM     24  O2  UNL     1       3.395  50.912  13.023  0.00  0.00    +0.000 OA
ATOM     25  H11 UNL     1       3.370  50.184  13.698  0.00  0.00    +0.000 HD
ENDBRANCH  23  24
ENDBRANCH   5  23
TORSDOF 8
ENDMDL
MODEL 8
REMARK VINA RESULT:      -6.0      3.126      4.866
REMARK  Name = .\Catechins.pdb
REMARK  8 active torsions:
REMARK  status: ('A' for Active; 'I' for Inactive)
REMARK    1  A    between atoms: C3_3  and  O7_19
REMARK    2  A    between atoms: C4_4  and  O6_18
REMARK    3  A    between atoms: C6_6  and  C7_7
REMARK    4  A    between atoms: C8_8  and  O5_17
REMARK    5  A    between atoms: C9_9  and  O4_16
REMARK    6  A    between atoms: C10_10  and  O3_15
REMARK    7  A    between atoms: C11_11  and  C12_13
REMARK    8  A    between atoms: C12_13  and  O2_14
REMARK                            x       y       z     vdW  Elec       q    Type
REMARK                         _______ _______ _______ _____ _____    ______ ____
ROOT
ATOM      1  C7  UNL     1       4.861  56.282   8.508  0.00  0.00    +0.000 C 
ATOM      2  C8  UNL     1       3.544  56.460   7.707  0.00  0.00    +0.000 C 
ATOM      3  C9  UNL     1       3.176  55.164   6.934  0.00  0.00    +0.000 C 
ATOM      4  C10 UNL     1       4.447  54.389   6.548  0.00  0.00    +0.000 C 
ATOM      5  C11 UNL     1       5.306  54.082   7.825  0.00  0.00    +0.000 C 
ATOM      6  O1  UNL     1       4.992  54.934   8.922  0.00  0.00    +0.000 OA
ENDROOT
BRANCH   1  12
ATOM      7  C1  UNL     1       5.740  58.292   9.780  0.00  0.00    +0.000 A 
ATOM      8  C2  UNL     1       5.769  59.107  10.915  0.00  0.00    +0.000 A 
ATOM      9  C3  UNL     1       4.938  58.825  12.008  0.00  0.00    +0.000 A 
ATOM     10  C4  UNL     1       4.081  57.718  11.963  0.00  0.00    +0.000 A 
ATOM     11  C5  UNL     1       4.052  56.901  10.823  0.00  0.00    +0.000 A 
ATOM     12  C6  UNL     1       4.870  57.189   9.718  0.00  0.00    +0.000 A 
BRANCH  10  13
ATOM     13  O6  UNL     1       3.262  57.435  13.055  0.00  0.00    +0.000 OA
ATOM     14  H15 UNL     1       2.293  57.730  13.081  0.00  0.00    +0.000 HD
ENDBRANCH  10  13
BRANCH   9  15
ATOM     15  O7  UNL     1       4.964  59.635  13.141  0.00  0.00    +0.000 OA
ATOM     16  H16 UNL     1       4.118  60.049  13.516  0.00  0.00    +0.000 HD
ENDBRANCH   9  15
ENDBRANCH   1  12
BRANCH   4  17
ATOM     17  O3  UNL     1       4.108  53.210   5.859  0.00  0.00    +0.000 OA
ATOM     18  H12 UNL     1       4.449  53.305   4.932  0.00  0.00    +0.000 HD
ENDBRANCH   4  17
BRANCH   3  19
ATOM     19  O4  UNL     1       2.427  55.463   5.784  0.00  0.00    +0.000 OA
ATOM     20  H13 UNL     1       1.548  55.800   6.098  0.00  0.00    +0.000 HD
ENDBRANCH   3  19
BRANCH   2  21
ATOM     21  O5  UNL     1       3.639  57.571   6.848  0.00  0.00    +0.000 OA
ATOM     22  H14 UNL     1       4.293  57.347   6.137  0.00  0.00    +0.000 HD
ENDBRANCH   2  21
BRANCH   5  23
ATOM     23  C12 UNL     1       5.155  52.630   8.303  0.00  0.00    +0.000 C 
BRANCH  23  24
ATOM     24  O2  UNL     1       3.845  52.411   8.748  0.00  0.00    +0.000 OA
ATOM     25  H11 UNL     1       3.398  53.298   8.739  0.00  0.00    +0.000 HD
ENDBRANCH  23  24
ENDBRANCH   5  23
TORSDOF 8
ENDMDL
MODEL 9
REMARK VINA RESULT:      -6.0      1.659      1.928
REMARK  Name = .\Catechins.pdb
REMARK  8 active torsions:
REMARK  status: ('A' for Active; 'I' for Inactive)
REMARK    1  A    between atoms: C3_3  and  O7_19
REMARK    2  A    between atoms: C4_4  and  O6_18
REMARK    3  A    between atoms: C6_6  and  C7_7
REMARK    4  A    between atoms: C8_8  and  O5_17
REMARK    5  A    between atoms: C9_9  and  O4_16
REMARK    6  A    between atoms: C10_10  and  O3_15
REMARK    7  A    between atoms: C11_11  and  C12_13
REMARK    8  A    between atoms: C12_13  and  O2_14
REMARK                            x       y       z     vdW  Elec       q    Type
REMARK                         _______ _______ _______ _____ _____    ______ ____
ROOT
ATOM      1  C7  UNL     1       3.165  51.987   8.987  0.00  0.00    +0.000 C 
ATOM      2  C8  UNL     1       1.673  51.569   9.052  0.00  0.00    +0.000 C 
ATOM      3  C9  UNL     1       1.457  50.406  10.060  0.00  0.00    +0.000 C 
ATOM      4  C10 UNL     1       2.716  49.525  10.141  0.00  0.00    +0.000 C 
ATOM      5  C11 UNL     1       3.967  50.396  10.513  0.00  0.00    +0.000 C 
ATOM      6  O1  UNL     1       3.776  51.782  10.248  0.00  0.00    +0.000 OA
ENDROOT
BRANCH   1  12
ATOM      7  C1  UNL     1       3.795  54.390   9.499  0.00  0.00    +0.000 A 
ATOM      8  C2  UNL     1       3.876  55.739   9.141  0.00  0.00    +0.000 A 
ATOM      9  C3  UNL     1       3.441  56.160   7.877  0.00  0.00    +0.000 A 
ATOM     10  C4  UNL     1       2.918  55.226   6.973  0.00  0.00    +0.000 A 
ATOM     11  C5  UNL     1       2.838  53.873   7.333  0.00  0.00    +0.000 A 
ATOM     12  C6  UNL     1       3.289  53.442   8.592  0.00  0.00    +0.000 A 
BRANCH  10  13
ATOM     13  O6  UNL     1       2.479  55.650   5.720  0.00  0.00    +0.000 OA
ATOM     14  H15 UNL     1       1.613  55.310   5.319  0.00  0.00    +0.000 HD
ENDBRANCH  10  13
BRANCH   9  15
ATOM     15  O7  UNL     1       3.520  57.503   7.516  0.00  0.00    +0.000 OA
ATOM     16  H16 UNL     1       3.981  58.185   8.107  0.00  0.00    +0.000 HD
ENDBRANCH   9  15
ENDBRANCH   1  12
BRANCH   4  17
ATOM     17  O3  UNL     1       2.519  48.482  11.065  0.00  0.00    +0.000 OA
ATOM     18  H12 UNL     1       2.086  48.877  11.866  0.00  0.00    +0.000 HD
ENDBRANCH   4  17
BRANCH   3  19
ATOM     19  O4  UNL     1       0.347  49.628   9.697  0.00  0.00    +0.000 OA
ATOM     20  H13 UNL     1       0.005  49.214  10.531  0.00  0.00    +0.000 HD
ENDBRANCH   3  19
BRANCH   2  21
ATOM     21  O5  UNL     1       1.200  51.239   7.767  0.00  0.00    +0.000 OA
ATOM     22  H14 UNL     1       0.289  51.620   7.675  0.00  0.00    +0.000 HD
ENDBRANCH   2  21
BRANCH   5  23
ATOM     23  C12 UNL     1       4.367  50.253  11.989  0.00  0.00    +0.000 C 
BRANCH  23  24
ATOM     24  O2  UNL     1       3.476  50.974  12.794  0.00  0.00    +0.000 OA
ATOM     25  H11 UNL     1       2.587  50.551  12.670  0.00  0.00    +0.000 HD
ENDBRANCH  23  24
ENDBRANCH   5  23
TORSDOF 8
ENDMDL
