MODEL 1
REMARK VINA RESULT:      -5.5      0.000      0.000
REMARK  Name = .\Catechins.pdb
REMARK  8 active torsions:
REMARK  status: ('A' for Active; 'I' for Inactive)
REMARK    1  A    between atoms: C3_3  and  O7_19
REMARK    2  A    between atoms: C4_4  and  O6_18
REMARK    3  A    between atoms: C6_6  and  C7_7
REMARK    4  A    between atoms: C8_8  and  O5_17
REMARK    5  A    between atoms: C9_9  and  O4_16
REMARK    6  A    between atoms: C10_10  and  O3_15
REMARK    7  A    between atoms: C11_11  and  C12_13
REMARK    8  A    between atoms: C12_13  and  O2_14
REMARK                            x       y       z     vdW  Elec       q    Type
REMARK                         _______ _______ _______ _____ _____    ______ ____
ROOT
ATOM      1  C7  UNL     1     -10.997  41.938  14.938  0.00  0.00    +0.000 C 
ATOM      2  C8  UNL     1     -10.558  43.187  15.748  0.00  0.00    +0.000 C 
ATOM      3  C9  UNL     1     -11.089  43.125  17.207  0.00  0.00    +0.000 C 
ATOM      4  C10 UNL     1     -12.415  42.349  17.264  0.00  0.00    +0.000 C 
ATOM      5  C11 UNL     1     -12.236  40.917  16.648  0.00  0.00    +0.000 C 
ATOM      6  O1  UNL     1     -11.097  40.818  15.798  0.00  0.00    +0.000 OA
ENDROOT
BRANCH   1  12
ATOM      7  C1  UNL     1     -10.407  41.620  12.491  0.00  0.00    +0.000 A 
ATOM      8  C2  UNL     1      -9.490  41.315  11.481  0.00  0.00    +0.000 A 
ATOM      9  C3  UNL     1      -8.158  41.023  11.803  0.00  0.00    +0.000 A 
ATOM     10  C4  UNL     1      -7.747  41.030  13.142  0.00  0.00    +0.000 A 
ATOM     11  C5  UNL     1      -8.668  41.336  14.155  0.00  0.00    +0.000 A 
ATOM     12  C6  UNL     1     -10.001  41.647  13.837  0.00  0.00    +0.000 A 
BRANCH  10  13
ATOM     13  O6  UNL     1      -6.423  40.730  13.459  0.00  0.00    +0.000 OA
ATOM     14  H15 UNL     1      -5.795  40.322  12.777  0.00  0.00    +0.000 HD
ENDBRANCH  10  13
BRANCH   9  15
ATOM     15  O7  UNL     1      -7.241  40.720  10.799  0.00  0.00    +0.000 OA
ATOM     16  H16 UNL     1      -7.443  40.903   9.823  0.00  0.00    +0.000 HD
ENDBRANCH   9  15
ENDBRANCH   1  12
BRANCH   4  17
ATOM     17  O3  UNL     1     -12.885  42.286  18.589  0.00  0.00    +0.000 OA
ATOM     18  H12 UNL     1     -12.413  42.993  19.101  0.00  0.00    +0.000 HD
ENDBRANCH   4  17
BRANCH   3  19
ATOM     19  O4  UNL     1     -11.263  44.416  17.731  0.00  0.00    +0.000 OA
ATOM     20  H13 UNL     1     -11.188  45.045  16.967  0.00  0.00    +0.000 HD
ENDBRANCH   3  19
BRANCH   2  21
ATOM     21  O5  UNL     1     -10.968  44.364  15.094  0.00  0.00    +0.000 OA
ATOM     22  H14 UNL     1     -10.421  44.457  14.271  0.00  0.00    +0.000 HD
ENDBRANCH   2  21
BRANCH   5  23
ATOM     23  C12 UNL     1     -12.115  39.824  17.720  0.00  0.00    +0.000 C 
BRANCH  23  24
ATOM     24  O2  UNL     1     -10.971  40.048  18.498  0.00  0.00    +0.000 OA
ATOM     25  H11 UNL     1     -10.686  39.157  18.832  0.00  0.00    +0.000 HD
ENDBRANCH  23  24
ENDBRANCH   5  23
TORSDOF 8
ENDMDL
MODEL 2
REMARK VINA RESULT:      -5.3      1.453      2.976
REMARK  Name = .\Catechins.pdb
REMARK  8 active torsions:
REMARK  status: ('A' for Active; 'I' for Inactive)
REMARK    1  A    between atoms: C3_3  and  O7_19
REMARK    2  A    between atoms: C4_4  and  O6_18
REMARK    3  A    between atoms: C6_6  and  C7_7
REMARK    4  A    between atoms: C8_8  and  O5_17
REMARK    5  A    between atoms: C9_9  and  O4_16
REMARK    6  A    between atoms: C10_10  and  O3_15
REMARK    7  A    between atoms: C11_11  and  C12_13
REMARK    8  A    between atoms: C12_13  and  O2_14
REMARK                            x       y       z     vdW  Elec       q    Type
REMARK                         _______ _______ _______ _____ _____    ______ ____
ROOT
ATOM      1  C7  UNL     1     -10.730  42.314  14.901  0.00  0.00    +0.000 C 
ATOM      2  C8  UNL     1     -11.877  41.291  15.108  0.00  0.00    +0.000 C 
ATOM      3  C9  UNL     1     -13.146  41.978  15.684  0.00  0.00    +0.000 C 
ATOM      4  C10 UNL     1     -12.756  43.186  16.553  0.00  0.00    +0.000 C 
ATOM      5  C11 UNL     1     -11.874  44.187  15.728  0.00  0.00    +0.000 C 
ATOM      6  O1  UNL     1     -11.270  43.584  14.587  0.00  0.00    +0.000 OA
ENDROOT
BRANCH   1  12
ATOM      7  C1  UNL     1     -10.293  41.737  12.470  0.00  0.00    +0.000 A 
ATOM      8  C2  UNL     1      -9.451  41.286  11.449  0.00  0.00    +0.000 A 
ATOM      9  C3  UNL     1      -8.123  40.940  11.732  0.00  0.00    +0.000 A 
ATOM     10  C4  UNL     1      -7.641  41.043  13.043  0.00  0.00    +0.000 A 
ATOM     11  C5  UNL     1      -8.486  41.496  14.066  0.00  0.00    +0.000 A 
ATOM     12  C6  UNL     1      -9.814  41.861  13.786  0.00  0.00    +0.000 A 
BRANCH  10  13
ATOM     13  O6  UNL     1      -6.321  40.690  13.322  0.00  0.00    +0.000 OA
ATOM     14  H15 UNL     1      -6.023  40.452  14.261  0.00  0.00    +0.000 HD
ENDBRANCH  10  13
BRANCH   9  15
ATOM     15  O7  UNL     1      -7.280  40.491  10.718  0.00  0.00    +0.000 OA
ATOM     16  H16 UNL     1      -6.328  40.825  10.632  0.00  0.00    +0.000 HD
ENDBRANCH   9  15
ENDBRANCH   1  12
BRANCH   4  17
ATOM     17  O3  UNL     1     -13.909  43.811  17.062  0.00  0.00    +0.000 OA
ATOM     18  H12 UNL     1     -13.674  44.176  17.955  0.00  0.00    +0.000 HD
ENDBRANCH   4  17
BRANCH   3  19
ATOM     19  O4  UNL     1     -13.909  41.070  16.436  0.00  0.00    +0.000 OA
ATOM     20  H13 UNL     1     -13.855  41.368  17.381  0.00  0.00    +0.000 HD
ENDBRANCH   3  19
BRANCH   2  21
ATOM     21  O5  UNL     1     -11.445  40.227  15.922  0.00  0.00    +0.000 OA
ATOM     22  H14 UNL     1     -10.453  40.223  15.912  0.00  0.00    +0.000 HD
ENDBRANCH   2  21
BRANCH   5  23
ATOM     23  C12 UNL     1     -12.666  45.411  15.244  0.00  0.00    +0.000 C 
BRANCH  23  24
ATOM     24  O2  UNL     1     -13.376  45.087  14.080  0.00  0.00    +0.000 OA
ATOM     25  H11 UNL     1     -12.791  45.345  13.320  0.00  0.00    +0.000 HD
ENDBRANCH  23  24
ENDBRANCH   5  23
TORSDOF 8
ENDMDL
MODEL 3
REMARK VINA RESULT:      -5.3      1.626      2.403
REMARK  Name = .\Catechins.pdb
REMARK  8 active torsions:
REMARK  status: ('A' for Active; 'I' for Inactive)
REMARK    1  A    between atoms: C3_3  and  O7_19
REMARK    2  A    between atoms: C4_4  and  O6_18
REMARK    3  A    between atoms: C6_6  and  C7_7
REMARK    4  A    between atoms: C8_8  and  O5_17
REMARK    5  A    between atoms: C9_9  and  O4_16
REMARK    6  A    between atoms: C10_10  and  O3_15
REMARK    7  A    between atoms: C11_11  and  C12_13
REMARK    8  A    between atoms: C12_13  and  O2_14
REMARK                            x       y       z     vdW  Elec       q    Type
REMARK                         _______ _______ _______ _____ _____    ______ ____
ROOT
ATOM      1  C7  UNL     1     -10.471  41.956  15.059  0.00  0.00    +0.000 C 
ATOM      2  C8  UNL     1     -11.875  42.442  14.612  0.00  0.00    +0.000 C 
ATOM      3  C9  UNL     1     -12.507  43.386  15.671  0.00  0.00    +0.000 C 
ATOM      4  C10 UNL     1     -12.010  43.022  17.080  0.00  0.00    +0.000 C 
ATOM      5  C11 UNL     1     -10.443  43.055  17.131  0.00  0.00    +0.000 C 
ATOM      6  O1  UNL     1      -9.844  42.955  15.842  0.00  0.00    +0.000 OA
ENDROOT
BRANCH   1  12
ATOM      7  C1  UNL     1     -10.163  41.646  12.560  0.00  0.00    +0.000 A 
ATOM      8  C2  UNL     1      -9.374  41.321  11.454  0.00  0.00    +0.000 A 
ATOM      9  C3  UNL     1      -8.026  40.975  11.626  0.00  0.00    +0.000 A 
ATOM     10  C4  UNL     1      -7.473  40.951  12.912  0.00  0.00    +0.000 A 
ATOM     11  C5  UNL     1      -8.266  41.277  14.022  0.00  0.00    +0.000 A 
ATOM     12  C6  UNL     1      -9.613  41.641  13.854  0.00  0.00    +0.000 A 
BRANCH  10  13
ATOM     13  O6  UNL     1      -6.135  40.599  13.080  0.00  0.00    +0.000 OA
ATOM     14  H15 UNL     1      -5.404  41.004  12.506  0.00  0.00    +0.000 HD
ENDBRANCH  10  13
BRANCH   9  15
ATOM     15  O7  UNL     1      -7.236  40.652  10.526  0.00  0.00    +0.000 OA
ATOM     16  H16 UNL     1      -7.374  41.094   9.624  0.00  0.00    +0.000 HD
ENDBRANCH   9  15
ENDBRANCH   1  12
BRANCH   4  17
ATOM     17  O3  UNL     1     -12.576  43.888  18.034  0.00  0.00    +0.000 OA
ATOM     18  H12 UNL     1     -13.059  44.598  17.535  0.00  0.00    +0.000 HD
ENDBRANCH   4  17
BRANCH   3  19
ATOM     19  O4  UNL     1     -13.909  43.325  15.623  0.00  0.00    +0.000 OA
ATOM     20  H13 UNL     1     -14.185  43.793  14.792  0.00  0.00    +0.000 HD
ENDBRANCH   3  19
BRANCH   2  21
ATOM     21  O5  UNL     1     -12.708  41.342  14.330  0.00  0.00    +0.000 OA
ATOM     22  H14 UNL     1     -12.881  41.337  13.354  0.00  0.00    +0.000 HD
ENDBRANCH   2  21
BRANCH   5  23
ATOM     23  C12 UNL     1      -9.901  44.326  17.800  0.00  0.00    +0.000 C 
BRANCH  23  24
ATOM     24  O2  UNL     1     -10.004  45.409  16.917  0.00  0.00    +0.000 OA
ATOM     25  H11 UNL     1     -10.692  45.154  16.248  0.00  0.00    +0.000 HD
ENDBRANCH  23  24
ENDBRANCH   5  23
TORSDOF 8
ENDMDL
MODEL 4
REMARK VINA RESULT:      -5.2      1.453      1.632
REMARK  Name = .\Catechins.pdb
REMARK  8 active torsions:
REMARK  status: ('A' for Active; 'I' for Inactive)
REMARK    1  A    between atoms: C3_3  and  O7_19
REMARK    2  A    between atoms: C4_4  and  O6_18
REMARK    3  A    between atoms: C6_6  and  C7_7
REMARK    4  A    between atoms: C8_8  and  O5_17
REMARK    5  A    between atoms: C9_9  and  O4_16
REMARK    6  A    between atoms: C10_10  and  O3_15
REMARK    7  A    between atoms: C11_11  and  C12_13
REMARK    8  A    between atoms: C12_13  and  O2_14
REMARK                            x       y       z     vdW  Elec       q    Type
REMARK                         _______ _______ _______ _____ _____    ______ ____
ROOT
ATOM      1  C7  UNL     1      -9.833  41.153  14.707  0.00  0.00    +0.000 C 
ATOM      2  C8  UNL     1      -9.704  42.455  15.541  0.00  0.00    +0.000 C 
ATOM      3  C9  UNL     1      -9.965  42.185  17.048  0.00  0.00    +0.000 C 
ATOM      4  C10 UNL     1     -10.948  41.015  17.223  0.00  0.00    +0.000 C 
ATOM      5  C11 UNL     1     -10.412  39.738  16.486  0.00  0.00    +0.000 C 
ATOM      6  O1  UNL     1      -9.440  40.041  15.489  0.00  0.00    +0.000 OA
ENDROOT
BRANCH   1  12
ATOM      7  C1  UNL     1      -9.552  41.211  12.186  0.00  0.00    +0.000 A 
ATOM      8  C2  UNL     1      -8.748  41.250  11.044  0.00  0.00    +0.000 A 
ATOM      9  C3  UNL     1      -7.352  41.300  11.165  0.00  0.00    +0.000 A 
ATOM     10  C4  UNL     1      -6.763  41.304  12.435  0.00  0.00    +0.000 A 
ATOM     11  C5  UNL     1      -7.570  41.265  13.581  0.00  0.00    +0.000 A 
ATOM     12  C6  UNL     1      -8.971  41.233  13.467  0.00  0.00    +0.000 A 
BRANCH  10  13
ATOM     13  O6  UNL     1      -5.375  41.345  12.551  0.00  0.00    +0.000 OA
ATOM     14  H15 UNL     1      -4.920  41.436  13.452  0.00  0.00    +0.000 HD
ENDBRANCH  10  13
BRANCH   9  15
ATOM     15  O7  UNL     1      -6.548  41.339  10.028  0.00  0.00    +0.000 OA
ATOM     16  H16 UNL     1      -5.957  40.558   9.768  0.00  0.00    +0.000 HD
ENDBRANCH   9  15
ENDBRANCH   1  12
BRANCH   4  17
ATOM     17  O3  UNL     1     -11.171  40.768  18.590  0.00  0.00    +0.000 OA
ATOM     18  H12 UNL     1     -10.303  40.490  18.983  0.00  0.00    +0.000 HD
ENDBRANCH   4  17
BRANCH   3  19
ATOM     19  O4  UNL     1     -10.465  43.334  17.683  0.00  0.00    +0.000 OA
ATOM     20  H13 UNL     1     -11.375  43.106  18.006  0.00  0.00    +0.000 HD
ENDBRANCH   3  19
BRANCH   2  21
ATOM     21  O5  UNL     1     -10.562  43.450  15.033  0.00  0.00    +0.000 OA
ATOM     22  H14 UNL     1     -11.472  43.272  15.385  0.00  0.00    +0.000 HD
ENDBRANCH   2  21
BRANCH   5  23
ATOM     23  C12 UNL     1      -9.789  38.718  17.451  0.00  0.00    +0.000 C 
BRANCH  23  24
ATOM     24  O2  UNL     1      -8.532  39.171  17.873  0.00  0.00    +0.000 OA
ATOM     25  H11 UNL     1      -8.033  39.409  17.049  0.00  0.00    +0.000 HD
ENDBRANCH  23  24
ENDBRANCH   5  23
TORSDOF 8
ENDMDL
MODEL 5
REMARK VINA RESULT:      -4.9      1.452      2.707
REMARK  Name = .\Catechins.pdb
REMARK  8 active torsions:
REMARK  status: ('A' for Active; 'I' for Inactive)
REMARK    1  A    between atoms: C3_3  and  O7_19
REMARK    2  A    between atoms: C4_4  and  O6_18
REMARK    3  A    between atoms: C6_6  and  C7_7
REMARK    4  A    between atoms: C8_8  and  O5_17
REMARK    5  A    between atoms: C9_9  and  O4_16
REMARK    6  A    between atoms: C10_10  and  O3_15
REMARK    7  A    between atoms: C11_11  and  C12_13
REMARK    8  A    between atoms: C12_13  and  O2_14
REMARK                            x       y       z     vdW  Elec       q    Type
REMARK                         _______ _______ _______ _____ _____    ______ ____
ROOT
ATOM      1  C7  UNL     1      -9.847  41.226  15.464  0.00  0.00    +0.000 C 
ATOM      2  C8  UNL     1     -10.112  39.759  15.893  0.00  0.00    +0.000 C 
ATOM      3  C9  UNL     1     -11.340  39.662  16.840  0.00  0.00    +0.000 C 
ATOM      4  C10 UNL     1     -11.488  40.954  17.661  0.00  0.00    +0.000 C 
ATOM      5  C11 UNL     1     -11.582  42.197  16.709  0.00  0.00    +0.000 C 
ATOM      6  O1  UNL     1     -11.071  41.937  15.406  0.00  0.00    +0.000 OA
ENDROOT
BRANCH   1  12
ATOM      7  C1  UNL     1      -9.927  41.391  12.934  0.00  0.00    +0.000 A 
ATOM      8  C2  UNL     1      -9.298  41.394  11.686  0.00  0.00    +0.000 A 
ATOM      9  C3  UNL     1      -7.906  41.262  11.598  0.00  0.00    +0.000 A 
ATOM     10  C4  UNL     1      -7.144  41.120  12.764  0.00  0.00    +0.000 A 
ATOM     11  C5  UNL     1      -7.776  41.117  14.017  0.00  0.00    +0.000 A 
ATOM     12  C6  UNL     1      -9.170  41.267  14.113  0.00  0.00    +0.000 A 
BRANCH  10  13
ATOM     13  O6  UNL     1      -5.761  40.979  12.671  0.00  0.00    +0.000 OA
ATOM     14  H15 UNL     1      -5.130  41.667  13.068  0.00  0.00    +0.000 HD
ENDBRANCH  10  13
BRANCH   9  15
ATOM     15  O7  UNL     1      -7.275  41.265  10.355  0.00  0.00    +0.000 OA
ATOM     16  H16 UNL     1      -7.671  40.780   9.558  0.00  0.00    +0.000 HD
ENDBRANCH   9  15
ENDBRANCH   1  12
BRANCH   4  17
ATOM     17  O3  UNL     1     -12.609  40.865  18.508  0.00  0.00    +0.000 OA
ATOM     18  H12 UNL     1     -12.348  40.299  19.281  0.00  0.00    +0.000 HD
ENDBRANCH   4  17
BRANCH   3  19
ATOM     19  O4  UNL     1     -11.225  38.556  17.697  0.00  0.00    +0.000 OA
ATOM     20  H13 UNL     1     -11.286  38.907  18.623  0.00  0.00    +0.000 HD
ENDBRANCH   3  19
BRANCH   2  21
ATOM     21  O5  UNL     1      -8.957  39.203  16.477  0.00  0.00    +0.000 OA
ATOM     22  H14 UNL     1      -9.035  39.311  17.460  0.00  0.00    +0.000 HD
ENDBRANCH   2  21
BRANCH   5  23
ATOM     23  C12 UNL     1     -13.021  42.712  16.552  0.00  0.00    +0.000 C 
BRANCH  23  24
ATOM     24  O2  UNL     1     -13.503  42.391  15.276  0.00  0.00    +0.000 OA
ATOM     25  H11 UNL     1     -13.944  43.212  14.933  0.00  0.00    +0.000 HD
ENDBRANCH  23  24
ENDBRANCH   5  23
TORSDOF 8
ENDMDL
MODEL 6
REMARK VINA RESULT:      -4.8      1.688      2.308
REMARK  Name = .\Catechins.pdb
REMARK  8 active torsions:
REMARK  status: ('A' for Active; 'I' for Inactive)
REMARK    1  A    between atoms: C3_3  and  O7_19
REMARK    2  A    between atoms: C4_4  and  O6_18
REMARK    3  A    between atoms: C6_6  and  C7_7
REMARK    4  A    between atoms: C8_8  and  O5_17
REMARK    5  A    between atoms: C9_9  and  O4_16
REMARK    6  A    between atoms: C10_10  and  O3_15
REMARK    7  A    between atoms: C11_11  and  C12_13
REMARK    8  A    between atoms: C12_13  and  O2_14
REMARK                            x       y       z     vdW  Elec       q    Type
REMARK                         _______ _______ _______ _____ _____    ______ ____
ROOT
ATOM      1  C7  UNL     1     -11.006  40.999  14.973  0.00  0.00    +0.000 C 
ATOM      2  C8  UNL     1     -10.303  40.636  16.308  0.00  0.00    +0.000 C 
ATOM      3  C9  UNL     1     -11.252  39.837  17.243  0.00  0.00    +0.000 C 
ATOM      4  C10 UNL     1     -12.716  40.240  16.996  0.00  0.00    +0.000 C 
ATOM      5  C11 UNL     1     -13.087  40.045  15.485  0.00  0.00    +0.000 C 
ATOM      6  O1  UNL     1     -11.944  39.994  14.635  0.00  0.00    +0.000 OA
ENDROOT
BRANCH   1  12
ATOM      7  C1  UNL     1     -10.395  41.455  12.554  0.00  0.00    +0.000 A 
ATOM      8  C2  UNL     1      -9.455  41.549  11.524  0.00  0.00    +0.000 A 
ATOM      9  C3  UNL     1      -8.098  41.317  11.785  0.00  0.00    +0.000 A 
ATOM     10  C4  UNL     1      -7.685  40.984  13.081  0.00  0.00    +0.000 A 
ATOM     11  C5  UNL     1      -8.629  40.890  14.114  0.00  0.00    +0.000 A 
ATOM     12  C6  UNL     1      -9.989  41.139  13.862  0.00  0.00    +0.000 A 
BRANCH  10  13
ATOM     13  O6  UNL     1      -6.335  40.746  13.335  0.00  0.00    +0.000 OA
ATOM     14  H15 UNL     1      -5.951  39.808  13.323  0.00  0.00    +0.000 HD
ENDBRANCH  10  13
BRANCH   9  15
ATOM     15  O7  UNL     1      -7.157  41.411  10.761  0.00  0.00    +0.000 OA
ATOM     16  H16 UNL     1      -7.075  40.695  10.049  0.00  0.00    +0.000 HD
ENDBRANCH   9  15
ENDBRANCH   1  12
BRANCH   4  17
ATOM     17  O3  UNL     1     -13.571  39.505  17.838  0.00  0.00    +0.000 OA
ATOM     18  H12 UNL     1     -14.153  40.158  18.307  0.00  0.00    +0.000 HD
ENDBRANCH   4  17
BRANCH   3  19
ATOM     19  O4  UNL     1     -10.916  40.042  18.591  0.00  0.00    +0.000 OA
ATOM     20  H13 UNL     1     -11.029  41.012  18.767  0.00  0.00    +0.000 HD
ENDBRANCH   3  19
BRANCH   2  21
ATOM     21  O5  UNL     1      -9.809  41.796  16.934  0.00  0.00    +0.000 OA
ATOM     22  H14 UNL     1      -9.297  42.309  16.257  0.00  0.00    +0.000 HD
ENDBRANCH   2  21
BRANCH   5  23
ATOM     23  C12 UNL     1     -13.909  38.771  15.239  0.00  0.00    +0.000 C 
BRANCH  23  24
ATOM     24  O2  UNL     1     -13.064  37.654  15.241  0.00  0.00    +0.000 OA
ATOM     25  H11 UNL     1     -12.707  37.575  14.319  0.00  0.00    +0.000 HD
ENDBRANCH  23  24
ENDBRANCH   5  23
TORSDOF 8
ENDMDL
MODEL 7
REMARK VINA RESULT:      -4.3      1.919      3.191
REMARK  Name = .\Catechins.pdb
REMARK  8 active torsions:
REMARK  status: ('A' for Active; 'I' for Inactive)
REMARK    1  A    between atoms: C3_3  and  O7_19
REMARK    2  A    between atoms: C4_4  and  O6_18
REMARK    3  A    between atoms: C6_6  and  C7_7
REMARK    4  A    between atoms: C8_8  and  O5_17
REMARK    5  A    between atoms: C9_9  and  O4_16
REMARK    6  A    between atoms: C10_10  and  O3_15
REMARK    7  A    between atoms: C11_11  and  C12_13
REMARK    8  A    between atoms: C12_13  and  O2_14
REMARK                            x       y       z     vdW  Elec       q    Type
REMARK                         _______ _______ _______ _____ _____    ______ ____
ROOT
ATOM      1  C7  UNL     1      -9.364  41.371  13.983  0.00  0.00    +0.000 C 
ATOM      2  C8  UNL     1     -10.739  41.934  13.539  0.00  0.00    +0.000 C 
ATOM      3  C9  UNL     1     -11.424  42.720  14.690  0.00  0.00    +0.000 C 
ATOM      4  C10 UNL     1     -11.006  42.148  16.055  0.00  0.00    +0.000 C 
ATOM      5  C11 UNL     1      -9.444  42.154  16.193  0.00  0.00    +0.000 C 
ATOM      6  O1  UNL     1      -8.777  42.238  14.938  0.00  0.00    +0.000 OA
ENDROOT
BRANCH   1  12
ATOM      7  C1  UNL     1      -7.117  41.695  12.850  0.00  0.00    +0.000 A 
ATOM      8  C2  UNL     1      -6.281  41.591  11.736  0.00  0.00    +0.000 A 
ATOM      9  C3  UNL     1      -6.760  41.028  10.545  0.00  0.00    +0.000 A 
ATOM     10  C4  UNL     1      -8.083  40.575  10.471  0.00  0.00    +0.000 A 
ATOM     11  C5  UNL     1      -8.922  40.680  11.590  0.00  0.00    +0.000 A 
ATOM     12  C6  UNL     1      -8.442  41.227  12.793  0.00  0.00    +0.000 A 
BRANCH  10  13
ATOM     13  O6  UNL     1      -8.558  40.024   9.282  0.00  0.00    +0.000 OA
ATOM     14  H15 UNL     1      -7.947  39.521   8.650  0.00  0.00    +0.000 HD
ENDBRANCH  10  13
BRANCH   9  15
ATOM     15  O7  UNL     1      -5.929  40.921   9.432  0.00  0.00    +0.000 OA
ATOM     16  H16 UNL     1      -5.456  41.729   9.043  0.00  0.00    +0.000 HD
ENDBRANCH   9  15
ENDBRANCH   1  12
BRANCH   4  17
ATOM     17  O3  UNL     1     -11.620  42.871  17.095  0.00  0.00    +0.000 OA
ATOM     18  H12 UNL     1     -12.017  43.686  16.690  0.00  0.00    +0.000 HD
ENDBRANCH   4  17
BRANCH   3  19
ATOM     19  O4  UNL     1     -12.822  42.683  14.559  0.00  0.00    +0.000 OA
ATOM     20  H13 UNL     1     -13.121  41.821  14.949  0.00  0.00    +0.000 HD
ENDBRANCH   3  19
BRANCH   2  21
ATOM     21  O5  UNL     1     -11.560  40.897  13.055  0.00  0.00    +0.000 OA
ATOM     22  H14 UNL     1     -12.126  41.273  12.333  0.00  0.00    +0.000 HD
ENDBRANCH   2  21
BRANCH   5  23
ATOM     23  C12 UNL     1      -8.934  43.308  17.070  0.00  0.00    +0.000 C 
BRANCH  23  24
ATOM     24  O2  UNL     1      -7.609  43.612  16.731  0.00  0.00    +0.000 OA
ATOM     25  H11 UNL     1      -7.653  44.128  15.884  0.00  0.00    +0.000 HD
ENDBRANCH  23  24
ENDBRANCH   5  23
TORSDOF 8
ENDMDL
MODEL 8
REMARK VINA RESULT:      -4.2      1.876      2.933
REMARK  Name = .\Catechins.pdb
REMARK  8 active torsions:
REMARK  status: ('A' for Active; 'I' for Inactive)
REMARK    1  A    between atoms: C3_3  and  O7_19
REMARK    2  A    between atoms: C4_4  and  O6_18
REMARK    3  A    between atoms: C6_6  and  C7_7
REMARK    4  A    between atoms: C8_8  and  O5_17
REMARK    5  A    between atoms: C9_9  and  O4_16
REMARK    6  A    between atoms: C10_10  and  O3_15
REMARK    7  A    between atoms: C11_11  and  C12_13
REMARK    8  A    between atoms: C12_13  and  O2_14
REMARK                            x       y       z     vdW  Elec       q    Type
REMARK                         _______ _______ _______ _____ _____    ______ ____
ROOT
ATOM      1  C7  UNL     1     -11.212  42.577  14.774  0.00  0.00    +0.000 C 
ATOM      2  C8  UNL     1     -11.819  43.717  13.914  0.00  0.00    +0.000 C 
ATOM      3  C9  UNL     1     -12.513  44.785  14.804  0.00  0.00    +0.000 C 
ATOM      4  C10 UNL     1     -13.064  44.140  16.087  0.00  0.00    +0.000 C 
ATOM      5  C11 UNL     1     -11.918  43.394  16.856  0.00  0.00    +0.000 C 
ATOM      6  O1  UNL     1     -10.800  43.090  16.028  0.00  0.00    +0.000 OA
ENDROOT
BRANCH   1  12
ATOM      7  C1  UNL     1      -8.821  41.733  14.748  0.00  0.00    +0.000 A 
ATOM      8  C2  UNL     1      -7.720  41.189  14.080  0.00  0.00    +0.000 A 
ATOM      9  C3  UNL     1      -7.810  40.869  12.718  0.00  0.00    +0.000 A 
ATOM     10  C4  UNL     1      -9.004  41.101  12.025  0.00  0.00    +0.000 A 
ATOM     11  C5  UNL     1     -10.108  41.647  12.697  0.00  0.00    +0.000 A 
ATOM     12  C6  UNL     1     -10.030  41.954  14.066  0.00  0.00    +0.000 A 
BRANCH  10  13
ATOM     13  O6  UNL     1      -9.086  40.789  10.669  0.00  0.00    +0.000 OA
ATOM     14  H15 UNL     1      -8.280  40.861  10.059  0.00  0.00    +0.000 HD
ENDBRANCH  10  13
BRANCH   9  15
ATOM     15  O7  UNL     1      -6.716  40.325  12.049  0.00  0.00    +0.000 OA
ATOM     16  H16 UNL     1      -5.764  40.551  12.316  0.00  0.00    +0.000 HD
ENDBRANCH   9  15
ENDBRANCH   1  12
BRANCH   4  17
ATOM     17  O3  UNL     1     -13.680  45.114  16.895  0.00  0.00    +0.000 OA
ATOM     18  H12 UNL     1     -13.566  45.988  16.438  0.00  0.00    +0.000 HD
ENDBRANCH   4  17
BRANCH   3  19
ATOM     19  O4  UNL     1     -13.548  45.424  14.103  0.00  0.00    +0.000 OA
ATOM     20  H13 UNL     1     -14.351  44.848  14.194  0.00  0.00    +0.000 HD
ENDBRANCH   3  19
BRANCH   2  21
ATOM     21  O5  UNL     1     -12.701  43.188  12.951  0.00  0.00    +0.000 OA
ATOM     22  H14 UNL     1     -13.622  43.265  13.311  0.00  0.00    +0.000 HD
ENDBRANCH   2  21
BRANCH   5  23
ATOM     23  C12 UNL     1     -11.402  44.191  18.063  0.00  0.00    +0.000 C 
BRANCH  23  24
ATOM     24  O2  UNL     1     -10.648  45.287  17.621  0.00  0.00    +0.000 OA
ATOM     25  H11 UNL     1     -10.895  46.047  18.209  0.00  0.00    +0.000 HD
ENDBRANCH  23  24
ENDBRANCH   5  23
TORSDOF 8
ENDMDL
MODEL 9
REMARK VINA RESULT:      -3.9      1.066      1.732
REMARK  Name = .\Catechins.pdb
REMARK  8 active torsions:
REMARK  status: ('A' for Active; 'I' for Inactive)
REMARK    1  A    between atoms: C3_3  and  O7_19
REMARK    2  A    between atoms: C4_4  and  O6_18
REMARK    3  A    between atoms: C6_6  and  C7_7
REMARK    4  A    between atoms: C8_8  and  O5_17
REMARK    5  A    between atoms: C9_9  and  O4_16
REMARK    6  A    between atoms: C10_10  and  O3_15
REMARK    7  A    between atoms: C11_11  and  C12_13
REMARK    8  A    between atoms: C12_13  and  O2_14
REMARK                            x       y       z     vdW  Elec       q    Type
REMARK                         _______ _______ _______ _____ _____    ______ ____
ROOT
ATOM      1  C7  UNL     1     -11.348  42.418  15.157  0.00  0.00    +0.000 C 
ATOM      2  C8  UNL     1     -10.915  43.649  15.996  0.00  0.00    +0.000 C 
ATOM      3  C9  UNL     1     -11.752  43.764  17.299  0.00  0.00    +0.000 C 
ATOM      4  C10 UNL     1     -13.159  43.181  17.088  0.00  0.00    +0.000 C 
ATOM      5  C11 UNL     1     -13.065  41.699  16.584  0.00  0.00    +0.000 C 
ATOM      6  O1  UNL     1     -11.797  41.386  16.016  0.00  0.00    +0.000 OA
ENDROOT
BRANCH   1  12
ATOM      7  C1  UNL     1      -8.928  41.703  14.898  0.00  0.00    +0.000 A 
ATOM      8  C2  UNL     1      -7.854  41.272  14.114  0.00  0.00    +0.000 A 
ATOM      9  C3  UNL     1      -8.026  41.059  12.739  0.00  0.00    +0.000 A 
ATOM     10  C4  UNL     1      -9.277  41.285  12.151  0.00  0.00    +0.000 A 
ATOM     11  C5  UNL     1     -10.354  41.717  12.939  0.00  0.00    +0.000 A 
ATOM     12  C6  UNL     1     -10.192  41.916  14.320  0.00  0.00    +0.000 A 
BRANCH  10  13
ATOM     13  O6  UNL     1      -9.442  41.080  10.782  0.00  0.00    +0.000 OA
ATOM     14  H15 UNL     1     -10.147  41.580  10.252  0.00  0.00    +0.000 HD
ENDBRANCH  10  13
BRANCH   9  15
ATOM     15  O7  UNL     1      -6.959  40.629  11.954  0.00  0.00    +0.000 OA
ATOM     16  H16 UNL     1      -7.108  40.141  11.078  0.00  0.00    +0.000 HD
ENDBRANCH   9  15
ENDBRANCH   1  12
BRANCH   4  17
ATOM     17  O3  UNL     1     -13.909  43.277  18.275  0.00  0.00    +0.000 OA
ATOM     18  H12 UNL     1     -13.976  42.362  18.654  0.00  0.00    +0.000 HD
ENDBRANCH   4  17
BRANCH   3  19
ATOM     19  O4  UNL     1     -11.841  45.100  17.720  0.00  0.00    +0.000 OA
ATOM     20  H13 UNL     1     -11.087  45.252  18.347  0.00  0.00    +0.000 HD
ENDBRANCH   3  19
BRANCH   2  21
ATOM     21  O5  UNL     1     -10.993  44.822  15.221  0.00  0.00    +0.000 OA
ATOM     22  H14 UNL     1     -11.781  45.337  15.532  0.00  0.00    +0.000 HD
ENDBRANCH   2  21
BRANCH   5  23
ATOM     23  C12 UNL     1     -13.343  40.678  17.698  0.00  0.00    +0.000 C 
BRANCH  23  24
ATOM     24  O2  UNL     1     -12.255  40.630  18.579  0.00  0.00    +0.000 OA
ATOM     25  H11 UNL     1     -12.449  39.895  19.217  0.00  0.00    +0.000 HD
ENDBRANCH  23  24
ENDBRANCH   5  23
TORSDOF 8
ENDMDL
