MODEL 1
REMARK VINA RESULT:      -4.5      0.000      0.000
REMARK  Name = .\Catechins.pdb
REMARK  8 active torsions:
REMARK  status: ('A' for Active; 'I' for Inactive)
REMARK    1  A    between atoms: C3_3  and  O7_19
REMARK    2  A    between atoms: C4_4  and  O6_18
REMARK    3  A    between atoms: C6_6  and  C7_7
REMARK    4  A    between atoms: C8_8  and  O5_17
REMARK    5  A    between atoms: C9_9  and  O4_16
REMARK    6  A    between atoms: C10_10  and  O3_15
REMARK    7  A    between atoms: C11_11  and  C12_13
REMARK    8  A    between atoms: C12_13  and  O2_14
REMARK                            x       y       z     vdW  Elec       q    Type
REMARK                         _______ _______ _______ _____ _____    ______ ____
ROOT
ATOM      1  C7  UNL     1      -3.862  67.471  16.550  0.00  0.00    +0.000 C 
ATOM      2  C8  UNL     1      -5.065  66.493  16.590  0.00  0.00    +0.000 C 
ATOM      3  C9  UNL     1      -4.997  65.469  15.423  0.00  0.00    +0.000 C 
ATOM      4  C10 UNL     1      -4.291  66.088  14.205  0.00  0.00    +0.000 C 
ATOM      5  C11 UNL     1      -2.867  66.609  14.608  0.00  0.00    +0.000 C 
ATOM      6  O1  UNL     1      -2.728  66.815  16.010  0.00  0.00    +0.000 OA
ENDROOT
BRANCH   1  12
ATOM      7  C1  UNL     1      -2.993  67.114  18.906  0.00  0.00    +0.000 A 
ATOM      8  C2  UNL     1      -2.733  67.575  20.199  0.00  0.00    +0.000 A 
ATOM      9  C3  UNL     1      -3.032  68.899  20.549  0.00  0.00    +0.000 A 
ATOM     10  C4  UNL     1      -3.598  69.759  19.600  0.00  0.00    +0.000 A 
ATOM     11  C5  UNL     1      -3.858  69.296  18.302  0.00  0.00    +0.000 A 
ATOM     12  C6  UNL     1      -3.544  67.974  17.940  0.00  0.00    +0.000 A 
BRANCH  10  13
ATOM     13  O6  UNL     1      -3.902  71.073  19.954  0.00  0.00    +0.000 OA
ATOM     14  H15 UNL     1      -4.722  71.297  20.505  0.00  0.00    +0.000 HD
ENDBRANCH  10  13
BRANCH   9  15
ATOM     15  O7  UNL     1      -2.774  69.363  21.837  0.00  0.00    +0.000 OA
ATOM     16  H16 UNL     1      -2.290  68.792  22.520  0.00  0.00    +0.000 HD
ENDBRANCH   9  15
ENDBRANCH   1  12
BRANCH   4  17
ATOM     17  O3  UNL     1      -4.221  65.153  13.156  0.00  0.00    +0.000 OA
ATOM     18  H12 UNL     1      -3.459  64.548  13.353  0.00  0.00    +0.000 HD
ENDBRANCH   4  17
BRANCH   3  19
ATOM     19  O4  UNL     1      -6.283  65.033  15.065  0.00  0.00    +0.000 OA
ATOM     20  H13 UNL     1      -6.685  65.754  14.515  0.00  0.00    +0.000 HD
ENDBRANCH   3  19
BRANCH   2  21
ATOM     21  O5  UNL     1      -6.278  67.208  16.586  0.00  0.00    +0.000 OA
ATOM     22  H14 UNL     1      -6.062  68.168  16.709  0.00  0.00    +0.000 HD
ENDBRANCH   2  21
BRANCH   5  23
ATOM     23  C12 UNL     1      -1.744  65.661  14.162  0.00  0.00    +0.000 C 
BRANCH  23  24
ATOM     24  O2  UNL     1      -1.970  64.380  14.684  0.00  0.00    +0.000 OA
ATOM     25  H11 UNL     1      -2.947  64.221  14.611  0.00  0.00    +0.000 HD
ENDBRANCH  23  24
ENDBRANCH   5  23
TORSDOF 8
ENDMDL
MODEL 2
REMARK VINA RESULT:      -4.4      1.484      3.054
REMARK  Name = .\Catechins.pdb
REMARK  8 active torsions:
REMARK  status: ('A' for Active; 'I' for Inactive)
REMARK    1  A    between atoms: C3_3  and  O7_19
REMARK    2  A    between atoms: C4_4  and  O6_18
REMARK    3  A    between atoms: C6_6  and  C7_7
REMARK    4  A    between atoms: C8_8  and  O5_17
REMARK    5  A    between atoms: C9_9  and  O4_16
REMARK    6  A    between atoms: C10_10  and  O3_15
REMARK    7  A    between atoms: C11_11  and  C12_13
REMARK    8  A    between atoms: C12_13  and  O2_14
REMARK                            x       y       z     vdW  Elec       q    Type
REMARK                         _______ _______ _______ _____ _____    ______ ____
ROOT
ATOM      1  C7  UNL     1      -3.816  66.522  16.828  0.00  0.00    +0.000 C 
ATOM      2  C8  UNL     1      -3.108  66.364  15.457  0.00  0.00    +0.000 C 
ATOM      3  C9  UNL     1      -4.121  65.985  14.342  0.00  0.00    +0.000 C 
ATOM      4  C10 UNL     1      -5.290  65.175  14.929  0.00  0.00    +0.000 C 
ATOM      5  C11 UNL     1      -5.975  65.973  16.093  0.00  0.00    +0.000 C 
ATOM      6  O1  UNL     1      -5.138  66.991  16.635  0.00  0.00    +0.000 OA
ENDROOT
BRANCH   1  12
ATOM      7  C1  UNL     1      -1.995  68.252  17.183  0.00  0.00    +0.000 A 
ATOM      8  C2  UNL     1      -1.274  69.121  18.006  0.00  0.00    +0.000 A 
ATOM      9  C3  UNL     1      -1.596  69.234  19.366  0.00  0.00    +0.000 A 
ATOM     10  C4  UNL     1      -2.639  68.468  19.900  0.00  0.00    +0.000 A 
ATOM     11  C5  UNL     1      -3.362  67.596  19.073  0.00  0.00    +0.000 A 
ATOM     12  C6  UNL     1      -3.056  67.492  17.706  0.00  0.00    +0.000 A 
BRANCH  10  13
ATOM     13  O6  UNL     1      -2.950  68.577  21.255  0.00  0.00    +0.000 OA
ATOM     14  H15 UNL     1      -3.908  68.664  21.573  0.00  0.00    +0.000 HD
ENDBRANCH  10  13
BRANCH   9  15
ATOM     15  O7  UNL     1      -0.880  70.100  20.190  0.00  0.00    +0.000 OA
ATOM     16  H16 UNL     1       0.052  69.872  20.517  0.00  0.00    +0.000 HD
ENDBRANCH   9  15
ENDBRANCH   1  12
BRANCH   4  17
ATOM     17  O3  UNL     1      -6.210  64.845  13.917  0.00  0.00    +0.000 OA
ATOM     18  H12 UNL     1      -6.895  64.254  14.325  0.00  0.00    +0.000 HD
ENDBRANCH   4  17
BRANCH   3  19
ATOM     19  O4  UNL     1      -3.492  65.253  13.322  0.00  0.00    +0.000 OA
ATOM     20  H13 UNL     1      -3.754  65.678  12.464  0.00  0.00    +0.000 HD
ENDBRANCH   3  19
BRANCH   2  21
ATOM     21  O5  UNL     1      -2.061  65.427  15.551  0.00  0.00    +0.000 OA
ATOM     22  H14 UNL     1      -2.429  64.604  15.966  0.00  0.00    +0.000 HD
ENDBRANCH   2  21
BRANCH   5  23
ATOM     23  C12 UNL     1      -7.292  66.634  15.659  0.00  0.00    +0.000 C 
BRANCH  23  24
ATOM     24  O2  UNL     1      -7.049  67.536  14.615  0.00  0.00    +0.000 OA
ATOM     25  H11 UNL     1      -7.611  68.332  14.801  0.00  0.00    +0.000 HD
ENDBRANCH  23  24
ENDBRANCH   5  23
TORSDOF 8
ENDMDL
MODEL 3
REMARK VINA RESULT:      -4.4      1.352      2.741
REMARK  Name = .\Catechins.pdb
REMARK  8 active torsions:
REMARK  status: ('A' for Active; 'I' for Inactive)
REMARK    1  A    between atoms: C3_3  and  O7_19
REMARK    2  A    between atoms: C4_4  and  O6_18
REMARK    3  A    between atoms: C6_6  and  C7_7
REMARK    4  A    between atoms: C8_8  and  O5_17
REMARK    5  A    between atoms: C9_9  and  O4_16
REMARK    6  A    between atoms: C10_10  and  O3_15
REMARK    7  A    between atoms: C11_11  and  C12_13
REMARK    8  A    between atoms: C12_13  and  O2_14
REMARK                            x       y       z     vdW  Elec       q    Type
REMARK                         _______ _______ _______ _____ _____    ______ ____
ROOT
ATOM      1  C7  UNL     1      -3.011  67.111  17.421  0.00  0.00    +0.000 C 
ATOM      2  C8  UNL     1      -2.041  67.690  16.357  0.00  0.00    +0.000 C 
ATOM      3  C9  UNL     1      -2.300  67.064  14.959  0.00  0.00    +0.000 C 
ATOM      4  C10 UNL     1      -2.836  65.629  15.104  0.00  0.00    +0.000 C 
ATOM      5  C11 UNL     1      -4.126  65.617  15.997  0.00  0.00    +0.000 C 
ATOM      6  O1  UNL     1      -4.246  66.778  16.813  0.00  0.00    +0.000 OA
ENDROOT
BRANCH   1  12
ATOM      7  C1  UNL     1      -2.746  67.885  19.822  0.00  0.00    +0.000 A 
ATOM      8  C2  UNL     1      -2.993  68.800  20.848  0.00  0.00    +0.000 A 
ATOM      9  C3  UNL     1      -3.750  69.953  20.599  0.00  0.00    +0.000 A 
ATOM     10  C4  UNL     1      -4.266  70.183  19.317  0.00  0.00    +0.000 A 
ATOM     11  C5  UNL     1      -4.017  69.264  18.287  0.00  0.00    +0.000 A 
ATOM     12  C6  UNL     1      -3.243  68.116  18.527  0.00  0.00    +0.000 A 
BRANCH  10  13
ATOM     13  O6  UNL     1      -5.026  71.326  19.075  0.00  0.00    +0.000 OA
ATOM     14  H15 UNL     1      -4.629  72.140  18.620  0.00  0.00    +0.000 HD
ENDBRANCH  10  13
BRANCH   9  15
ATOM     15  O7  UNL     1      -3.998  70.868  21.619  0.00  0.00    +0.000 OA
ATOM     16  H16 UNL     1      -4.697  70.692  22.332  0.00  0.00    +0.000 HD
ENDBRANCH   9  15
ENDBRANCH   1  12
BRANCH   4  17
ATOM     17  O3  UNL     1      -3.080  65.071  13.835  0.00  0.00    +0.000 OA
ATOM     18  H12 UNL     1      -4.028  64.778  13.822  0.00  0.00    +0.000 HD
ENDBRANCH   4  17
BRANCH   3  19
ATOM     19  O4  UNL     1      -1.129  67.065  14.186  0.00  0.00    +0.000 OA
ATOM     20  H13 UNL     1      -1.412  66.959  13.241  0.00  0.00    +0.000 HD
ENDBRANCH   3  19
BRANCH   2  21
ATOM     21  O5  UNL     1      -0.705  67.518  16.767  0.00  0.00    +0.000 OA
ATOM     22  H14 UNL     1      -0.203  68.333  16.508  0.00  0.00    +0.000 HD
ENDBRANCH   2  21
BRANCH   5  23
ATOM     23  C12 UNL     1      -5.414  65.492  15.170  0.00  0.00    +0.000 C 
BRANCH  23  24
ATOM     24  O2  UNL     1      -5.633  66.675  14.451  0.00  0.00    +0.000 OA
ATOM     25  H11 UNL     1      -6.343  66.468  13.789  0.00  0.00    +0.000 HD
ENDBRANCH  23  24
ENDBRANCH   5  23
TORSDOF 8
ENDMDL
MODEL 4
REMARK VINA RESULT:      -4.3      2.189      6.289
REMARK  Name = .\Catechins.pdb
REMARK  8 active torsions:
REMARK  status: ('A' for Active; 'I' for Inactive)
REMARK    1  A    between atoms: C3_3  and  O7_19
REMARK    2  A    between atoms: C4_4  and  O6_18
REMARK    3  A    between atoms: C6_6  and  C7_7
REMARK    4  A    between atoms: C8_8  and  O5_17
REMARK    5  A    between atoms: C9_9  and  O4_16
REMARK    6  A    between atoms: C10_10  and  O3_15
REMARK    7  A    between atoms: C11_11  and  C12_13
REMARK    8  A    between atoms: C12_13  and  O2_14
REMARK                            x       y       z     vdW  Elec       q    Type
REMARK                         _______ _______ _______ _____ _____    ______ ____
ROOT
ATOM      1  C7  UNL     1      -3.856  65.922  15.386  0.00  0.00    +0.000 C 
ATOM      2  C8  UNL     1      -2.556  65.075  15.393  0.00  0.00    +0.000 C 
ATOM      3  C9  UNL     1      -1.470  65.720  16.297  0.00  0.00    +0.000 C 
ATOM      4  C10 UNL     1      -1.631  67.250  16.323  0.00  0.00    +0.000 C 
ATOM      5  C11 UNL     1      -3.080  67.637  16.785  0.00  0.00    +0.000 C 
ATOM      6  O1  UNL     1      -4.013  66.571  16.634  0.00  0.00    +0.000 OA
ENDROOT
BRANCH   1  12
ATOM      7  C1  UNL     1      -5.570  64.201  16.118  0.00  0.00    +0.000 A 
ATOM      8  C2  UNL     1      -6.658  63.365  15.853  0.00  0.00    +0.000 A 
ATOM      9  C3  UNL     1      -7.242  63.351  14.579  0.00  0.00    +0.000 A 
ATOM     10  C4  UNL     1      -6.728  64.173  13.568  0.00  0.00    +0.000 A 
ATOM     11  C5  UNL     1      -5.636  65.011  13.835  0.00  0.00    +0.000 A 
ATOM     12  C6  UNL     1      -5.058  65.043  15.116  0.00  0.00    +0.000 A 
BRANCH  10  13
ATOM     13  O6  UNL     1      -7.307  64.150  12.300  0.00  0.00    +0.000 OA
ATOM     14  H15 UNL     1      -8.146  64.678  12.090  0.00  0.00    +0.000 HD
ENDBRANCH  10  13
BRANCH   9  15
ATOM     15  O7  UNL     1      -8.328  62.521  14.311  0.00  0.00    +0.000 OA
ATOM     16  H16 UNL     1      -8.236  61.699  13.724  0.00  0.00    +0.000 HD
ENDBRANCH   9  15
ENDBRANCH   1  12
BRANCH   4  17
ATOM     17  O3  UNL     1      -0.652  67.827  17.153  0.00  0.00    +0.000 OA
ATOM     18  H12 UNL     1      -1.101  68.084  18.000  0.00  0.00    +0.000 HD
ENDBRANCH   4  17
BRANCH   3  19
ATOM     19  O4  UNL     1      -0.182  65.379  15.853  0.00  0.00    +0.000 OA
ATOM     20  H13 UNL     1      -0.051  65.836  14.982  0.00  0.00    +0.000 HD
ENDBRANCH   3  19
BRANCH   2  21
ATOM     21  O5  UNL     1      -2.092  64.879  14.078  0.00  0.00    +0.000 OA
ATOM     22  H14 UNL     1      -1.511  65.649  13.846  0.00  0.00    +0.000 HD
ENDBRANCH   2  21
BRANCH   5  23
ATOM     23  C12 UNL     1      -3.129  68.096  18.250  0.00  0.00    +0.000 C 
BRANCH  23  24
ATOM     24  O2  UNL     1      -2.814  67.024  19.094  0.00  0.00    +0.000 OA
ATOM     25  H11 UNL     1      -3.129  67.283  19.999  0.00  0.00    +0.000 HD
ENDBRANCH  23  24
ENDBRANCH   5  23
TORSDOF 8
ENDMDL
MODEL 5
REMARK VINA RESULT:      -4.2      1.844      2.086
REMARK  Name = .\Catechins.pdb
REMARK  8 active torsions:
REMARK  status: ('A' for Active; 'I' for Inactive)
REMARK    1  A    between atoms: C3_3  and  O7_19
REMARK    2  A    between atoms: C4_4  and  O6_18
REMARK    3  A    between atoms: C6_6  and  C7_7
REMARK    4  A    between atoms: C8_8  and  O5_17
REMARK    5  A    between atoms: C9_9  and  O4_16
REMARK    6  A    between atoms: C10_10  and  O3_15
REMARK    7  A    between atoms: C11_11  and  C12_13
REMARK    8  A    between atoms: C12_13  and  O2_14
REMARK                            x       y       z     vdW  Elec       q    Type
REMARK                         _______ _______ _______ _____ _____    ______ ____
ROOT
ATOM      1  C7  UNL     1      -2.347  67.670  17.355  0.00  0.00    +0.000 C 
ATOM      2  C8  UNL     1      -3.637  66.809  17.346  0.00  0.00    +0.000 C 
ATOM      3  C9  UNL     1      -3.489  65.581  16.407  0.00  0.00    +0.000 C 
ATOM      4  C10 UNL     1      -2.532  65.904  15.247  0.00  0.00    +0.000 C 
ATOM      5  C11 UNL     1      -1.146  66.385  15.802  0.00  0.00    +0.000 C 
ATOM      6  O1  UNL     1      -1.216  66.842  17.150  0.00  0.00    +0.000 OA
ENDROOT
BRANCH   1  12
ATOM      7  C1  UNL     1      -3.090  68.138  19.734  0.00  0.00    +0.000 A 
ATOM      8  C2  UNL     1      -2.980  68.843  20.936  0.00  0.00    +0.000 A 
ATOM      9  C3  UNL     1      -1.995  69.828  21.088  0.00  0.00    +0.000 A 
ATOM     10  C4  UNL     1      -1.123  70.111  20.029  0.00  0.00    +0.000 A 
ATOM     11  C5  UNL     1      -1.234  69.403  18.823  0.00  0.00    +0.000 A 
ATOM     12  C6  UNL     1      -2.209  68.402  18.671  0.00  0.00    +0.000 A 
BRANCH  10  13
ATOM     13  O6  UNL     1      -0.151  71.097  20.181  0.00  0.00    +0.000 OA
ATOM     14  H15 UNL     1       0.782  70.985  19.801  0.00  0.00    +0.000 HD
ENDBRANCH  10  13
BRANCH   9  15
ATOM     15  O7  UNL     1      -1.881  70.531  22.285  0.00  0.00    +0.000 OA
ATOM     16  H16 UNL     1      -1.822  71.543  22.303  0.00  0.00    +0.000 HD
ENDBRANCH   9  15
ENDBRANCH   1  12
BRANCH   4  17
ATOM     17  O3  UNL     1      -2.391  64.785  14.406  0.00  0.00    +0.000 OA
ATOM     18  H12 UNL     1      -3.158  64.794  13.775  0.00  0.00    +0.000 HD
ENDBRANCH   4  17
BRANCH   3  19
ATOM     19  O4  UNL     1      -4.738  65.181  15.904  0.00  0.00    +0.000 OA
ATOM     20  H13 UNL     1      -4.557  64.512  15.194  0.00  0.00    +0.000 HD
ENDBRANCH   3  19
BRANCH   2  21
ATOM     21  O5  UNL     1      -4.751  67.599  17.001  0.00  0.00    +0.000 OA
ATOM     22  H14 UNL     1      -4.764  68.383  17.608  0.00  0.00    +0.000 HD
ENDBRANCH   2  21
BRANCH   5  23
ATOM     23  C12 UNL     1      -0.072  65.289  15.737  0.00  0.00    +0.000 C 
BRANCH  23  24
ATOM     24  O2  UNL     1      -0.365  64.281  16.664  0.00  0.00    +0.000 OA
ATOM     25  H11 UNL     1      -0.899  64.712  17.381  0.00  0.00    +0.000 HD
ENDBRANCH  23  24
ENDBRANCH   5  23
TORSDOF 8
ENDMDL
MODEL 6
REMARK VINA RESULT:      -4.1      1.948      6.939
REMARK  Name = .\Catechins.pdb
REMARK  8 active torsions:
REMARK  status: ('A' for Active; 'I' for Inactive)
REMARK    1  A    between atoms: C3_3  and  O7_19
REMARK    2  A    between atoms: C4_4  and  O6_18
REMARK    3  A    between atoms: C6_6  and  C7_7
REMARK    4  A    between atoms: C8_8  and  O5_17
REMARK    5  A    between atoms: C9_9  and  O4_16
REMARK    6  A    between atoms: C10_10  and  O3_15
REMARK    7  A    between atoms: C11_11  and  C12_13
REMARK    8  A    between atoms: C12_13  and  O2_14
REMARK                            x       y       z     vdW  Elec       q    Type
REMARK                         _______ _______ _______ _____ _____    ______ ____
ROOT
ATOM      1  C7  UNL     1      -3.316  69.540  19.094  0.00  0.00    +0.000 C 
ATOM      2  C8  UNL     1      -2.388  69.242  20.301  0.00  0.00    +0.000 C 
ATOM      3  C9  UNL     1      -2.770  70.110  21.532  0.00  0.00    +0.000 C 
ATOM      4  C10 UNL     1      -3.371  71.452  21.078  0.00  0.00    +0.000 C 
ATOM      5  C11 UNL     1      -4.599  71.207  20.133  0.00  0.00    +0.000 C 
ATOM      6  O1  UNL     1      -4.604  69.904  19.557  0.00  0.00    +0.000 OA
ENDROOT
BRANCH   1  12
ATOM      7  C1  UNL     1      -4.568  68.114  17.411  0.00  0.00    +0.000 A 
ATOM      8  C2  UNL     1      -4.676  66.973  16.611  0.00  0.00    +0.000 A 
ATOM      9  C3  UNL     1      -3.645  66.023  16.595  0.00  0.00    +0.000 A 
ATOM     10  C4  UNL     1      -2.508  66.217  17.389  0.00  0.00    +0.000 A 
ATOM     11  C5  UNL     1      -2.400  67.362  18.191  0.00  0.00    +0.000 A 
ATOM     12  C6  UNL     1      -3.422  68.326  18.198  0.00  0.00    +0.000 A 
BRANCH  10  13
ATOM     13  O6  UNL     1      -1.489  65.265  17.376  0.00  0.00    +0.000 OA
ATOM     14  H15 UNL     1      -1.689  64.274  17.443  0.00  0.00    +0.000 HD
ENDBRANCH  10  13
BRANCH   9  15
ATOM     15  O7  UNL     1      -3.748  64.885  15.798  0.00  0.00    +0.000 OA
ATOM     16  H16 UNL     1      -4.649  64.512  15.520  0.00  0.00    +0.000 HD
ENDBRANCH   9  15
ENDBRANCH   1  12
BRANCH   4  17
ATOM     17  O3  UNL     1      -3.726  72.228  22.197  0.00  0.00    +0.000 OA
ATOM     18  H12 UNL     1      -2.901  72.680  22.513  0.00  0.00    +0.000 HD
ENDBRANCH   4  17
BRANCH   3  19
ATOM     19  O4  UNL     1      -1.653  70.335  22.352  0.00  0.00    +0.000 OA
ATOM     20  H13 UNL     1      -1.967  70.888  23.114  0.00  0.00    +0.000 HD
ENDBRANCH   3  19
BRANCH   2  21
ATOM     21  O5  UNL     1      -1.039  69.418  19.938  0.00  0.00    +0.000 OA
ATOM     22  H14 UNL     1      -0.916  69.021  19.037  0.00  0.00    +0.000 HD
ENDBRANCH   2  21
BRANCH   5  23
ATOM     23  C12 UNL     1      -5.943  71.406  20.849  0.00  0.00    +0.000 C 
BRANCH  23  24
ATOM     24  O2  UNL     1      -6.088  70.448  21.861  0.00  0.00    +0.000 OA
ATOM     25  H11 UNL     1      -5.338  70.599  22.493  0.00  0.00    +0.000 HD
ENDBRANCH  23  24
ENDBRANCH   5  23
TORSDOF 8
ENDMDL
MODEL 7
REMARK VINA RESULT:      -4.1      1.963      6.119
REMARK  Name = .\Catechins.pdb
REMARK  8 active torsions:
REMARK  status: ('A' for Active; 'I' for Inactive)
REMARK    1  A    between atoms: C3_3  and  O7_19
REMARK    2  A    between atoms: C4_4  and  O6_18
REMARK    3  A    between atoms: C6_6  and  C7_7
REMARK    4  A    between atoms: C8_8  and  O5_17
REMARK    5  A    between atoms: C9_9  and  O4_16
REMARK    6  A    between atoms: C10_10  and  O3_15
REMARK    7  A    between atoms: C11_11  and  C12_13
REMARK    8  A    between atoms: C12_13  and  O2_14
REMARK                            x       y       z     vdW  Elec       q    Type
REMARK                         _______ _______ _______ _____ _____    ______ ____
ROOT
ATOM      1  C7  UNL     1      -3.480  67.836  17.423  0.00  0.00    +0.000 C 
ATOM      2  C8  UNL     1      -2.000  67.794  16.959  0.00  0.00    +0.000 C 
ATOM      3  C9  UNL     1      -1.076  68.543  17.958  0.00  0.00    +0.000 C 
ATOM      4  C10 UNL     1      -1.843  69.683  18.649  0.00  0.00    +0.000 C 
ATOM      5  C11 UNL     1      -3.131  69.126  19.351  0.00  0.00    +0.000 C 
ATOM      6  O1  UNL     1      -3.539  67.861  18.838  0.00  0.00    +0.000 OA
ENDROOT
BRANCH   1  12
ATOM      7  C1  UNL     1      -3.548  65.582  16.262  0.00  0.00    +0.000 A 
ATOM      8  C2  UNL     1      -4.251  64.486  15.754  0.00  0.00    +0.000 A 
ATOM      9  C3  UNL     1      -5.646  64.427  15.871  0.00  0.00    +0.000 A 
ATOM     10  C4  UNL     1      -6.337  65.474  16.493  0.00  0.00    +0.000 A 
ATOM     11  C5  UNL     1      -5.632  66.573  17.003  0.00  0.00    +0.000 A 
ATOM     12  C6  UNL     1      -4.231  66.629  16.905  0.00  0.00    +0.000 A 
BRANCH  10  13
ATOM     13  O6  UNL     1      -7.726  65.415  16.600  0.00  0.00    +0.000 OA
ATOM     14  H15 UNL     1      -8.321  66.104  16.154  0.00  0.00    +0.000 HD
ENDBRANCH  10  13
BRANCH   9  15
ATOM     15  O7  UNL     1      -6.350  63.336  15.367  0.00  0.00    +0.000 OA
ATOM     16  H16 UNL     1      -6.302  63.079  14.387  0.00  0.00    +0.000 HD
ENDBRANCH   9  15
ENDBRANCH   1  12
BRANCH   4  17
ATOM     17  O3  UNL     1      -1.005  70.350  19.561  0.00  0.00    +0.000 OA
ATOM     18  H12 UNL     1      -0.976  69.802  20.388  0.00  0.00    +0.000 HD
ENDBRANCH   4  17
BRANCH   3  19
ATOM     19  O4  UNL     1       0.058  69.052  17.305  0.00  0.00    +0.000 OA
ATOM     20  H13 UNL     1      -0.265  69.741  16.669  0.00  0.00    +0.000 HD
ENDBRANCH   3  19
BRANCH   2  21
ATOM     21  O5  UNL     1      -1.881  68.306  15.653  0.00  0.00    +0.000 OA
ATOM     22  H14 UNL     1      -2.797  68.483  15.314  0.00  0.00    +0.000 HD
ENDBRANCH   2  21
BRANCH   5  23
ATOM     23  C12 UNL     1      -2.958  68.979  20.870  0.00  0.00    +0.000 C 
BRANCH  23  24
ATOM     24  O2  UNL     1      -3.208  70.207  21.497  0.00  0.00    +0.000 OA
ATOM     25  H11 UNL     1      -4.107  70.496  21.189  0.00  0.00    +0.000 HD
ENDBRANCH  23  24
ENDBRANCH   5  23
TORSDOF 8
ENDMDL
MODEL 8
REMARK VINA RESULT:      -4.0      2.012      6.236
REMARK  Name = .\Catechins.pdb
REMARK  8 active torsions:
REMARK  status: ('A' for Active; 'I' for Inactive)
REMARK    1  A    between atoms: C3_3  and  O7_19
REMARK    2  A    between atoms: C4_4  and  O6_18
REMARK    3  A    between atoms: C6_6  and  C7_7
REMARK    4  A    between atoms: C8_8  and  O5_17
REMARK    5  A    between atoms: C9_9  and  O4_16
REMARK    6  A    between atoms: C10_10  and  O3_15
REMARK    7  A    between atoms: C11_11  and  C12_13
REMARK    8  A    between atoms: C12_13  and  O2_14
REMARK                            x       y       z     vdW  Elec       q    Type
REMARK                         _______ _______ _______ _____ _____    ______ ____
ROOT
ATOM      1  C7  UNL     1      -2.338  68.077  17.770  0.00  0.00    +0.000 C 
ATOM      2  C8  UNL     1      -3.024  68.179  19.158  0.00  0.00    +0.000 C 
ATOM      3  C9  UNL     1      -2.484  69.393  19.964  0.00  0.00    +0.000 C 
ATOM      4  C10 UNL     1      -1.024  69.688  19.579  0.00  0.00    +0.000 C 
ATOM      5  C11 UNL     1      -0.904  69.915  18.031  0.00  0.00    +0.000 C 
ATOM      6  O1  UNL     1      -2.002  69.371  17.304  0.00  0.00    +0.000 OA
ENDROOT
BRANCH   1  12
ATOM      7  C1  UNL     1      -4.651  67.425  16.957  0.00  0.00    +0.000 A 
ATOM      8  C2  UNL     1      -5.493  66.771  16.054  0.00  0.00    +0.000 A 
ATOM      9  C3  UNL     1      -4.954  66.073  14.965  0.00  0.00    +0.000 A 
ATOM     10  C4  UNL     1      -3.565  66.028  14.786  0.00  0.00    +0.000 A 
ATOM     11  C5  UNL     1      -2.721  66.686  15.692  0.00  0.00    +0.000 A 
ATOM     12  C6  UNL     1      -3.257  67.402  16.776  0.00  0.00    +0.000 A 
BRANCH  10  13
ATOM     13  O6  UNL     1      -3.032  65.327  13.706  0.00  0.00    +0.000 OA
ATOM     14  H15 UNL     1      -2.188  64.773  13.798  0.00  0.00    +0.000 HD
ENDBRANCH  10  13
BRANCH   9  15
ATOM     15  O7  UNL     1      -5.790  65.420  14.062  0.00  0.00    +0.000 OA
ATOM     16  H16 UNL     1      -6.477  65.925  13.515  0.00  0.00    +0.000 HD
ENDBRANCH   9  15
ENDBRANCH   1  12
BRANCH   4  17
ATOM     17  O3  UNL     1      -0.545  70.795  20.303  0.00  0.00    +0.000 OA
ATOM     18  H12 UNL     1      -0.020  70.441  21.067  0.00  0.00    +0.000 HD
ENDBRANCH   4  17
BRANCH   3  19
ATOM     19  O4  UNL     1      -2.581  69.160  21.345  0.00  0.00    +0.000 OA
ATOM     20  H13 UNL     1      -3.407  69.616  21.653  0.00  0.00    +0.000 HD
ENDBRANCH   3  19
BRANCH   2  21
ATOM     21  O5  UNL     1      -2.873  66.973  19.869  0.00  0.00    +0.000 OA
ATOM     22  H14 UNL     1      -2.039  67.039  20.402  0.00  0.00    +0.000 HD
ENDBRANCH   2  21
BRANCH   5  23
ATOM     23  C12 UNL     1      -0.789  71.401  17.660  0.00  0.00    +0.000 C 
BRANCH  23  24
ATOM     24  O2  UNL     1      -2.005  72.049  17.914  0.00  0.00    +0.000 OA
ATOM     25  H11 UNL     1      -1.916  72.460  18.813  0.00  0.00    +0.000 HD
ENDBRANCH  23  24
ENDBRANCH   5  23
TORSDOF 8
ENDMDL
MODEL 9
REMARK VINA RESULT:      -4.0      1.949      6.004
REMARK  Name = .\Catechins.pdb
REMARK  8 active torsions:
REMARK  status: ('A' for Active; 'I' for Inactive)
REMARK    1  A    between atoms: C3_3  and  O7_19
REMARK    2  A    between atoms: C4_4  and  O6_18
REMARK    3  A    between atoms: C6_6  and  C7_7
REMARK    4  A    between atoms: C8_8  and  O5_17
REMARK    5  A    between atoms: C9_9  and  O4_16
REMARK    6  A    between atoms: C10_10  and  O3_15
REMARK    7  A    between atoms: C11_11  and  C12_13
REMARK    8  A    between atoms: C12_13  and  O2_14
REMARK                            x       y       z     vdW  Elec       q    Type
REMARK                         _______ _______ _______ _____ _____    ______ ____
ROOT
ATOM      1  C7  UNL     1      -3.728  67.192  16.320  0.00  0.00    +0.000 C 
ATOM      2  C8  UNL     1      -2.321  66.768  15.820  0.00  0.00    +0.000 C 
ATOM      3  C9  UNL     1      -1.205  67.309  16.756  0.00  0.00    +0.000 C 
ATOM      4  C10 UNL     1      -1.645  68.630  17.410  0.00  0.00    +0.000 C 
ATOM      5  C11 UNL     1      -3.002  68.435  18.172  0.00  0.00    +0.000 C 
ATOM      6  O1  UNL     1      -3.725  67.290  17.733  0.00  0.00    +0.000 OA
ENDROOT
BRANCH   1  12
ATOM      7  C1  UNL     1      -4.592  64.815  16.134  0.00  0.00    +0.000 A 
ATOM      8  C2  UNL     1      -5.541  63.886  15.697  0.00  0.00    +0.000 A 
ATOM      9  C3  UNL     1      -6.673  64.315  14.990  0.00  0.00    +0.000 A 
ATOM     10  C4  UNL     1      -6.849  65.677  14.717  0.00  0.00    +0.000 A 
ATOM     11  C5  UNL     1      -5.897  66.608  15.157  0.00  0.00    +0.000 A 
ATOM     12  C6  UNL     1      -4.769  66.186  15.882  0.00  0.00    +0.000 A 
BRANCH  10  13
ATOM     13  O6  UNL     1      -7.972  66.098  14.006  0.00  0.00    +0.000 OA
ATOM     14  H15 UNL     1      -8.842  65.579  14.034  0.00  0.00    +0.000 HD
ENDBRANCH  10  13
BRANCH   9  15
ATOM     15  O7  UNL     1      -7.621  63.393  14.552  0.00  0.00    +0.000 OA
ATOM     16  H16 UNL     1      -8.036  62.717  15.184  0.00  0.00    +0.000 HD
ENDBRANCH   9  15
ENDBRANCH   1  12
BRANCH   4  17
ATOM     17  O3  UNL     1      -0.635  69.108  18.266  0.00  0.00    +0.000 OA
ATOM     18  H12 UNL     1       0.213  68.674  17.989  0.00  0.00    +0.000 HD
ENDBRANCH   4  17
BRANCH   3  19
ATOM     19  O4  UNL     1      -0.006  67.496  16.050  0.00  0.00    +0.000 OA
ATOM     20  H13 UNL     1       0.117  68.475  15.954  0.00  0.00    +0.000 HD
ENDBRANCH   3  19
BRANCH   2  21
ATOM     21  O5  UNL     1      -2.130  67.182  14.488  0.00  0.00    +0.000 OA
ATOM     22  H14 UNL     1      -1.332  67.771  14.467  0.00  0.00    +0.000 HD
ENDBRANCH   2  21
BRANCH   5  23
ATOM     23  C12 UNL     1      -2.813  68.313  19.692  0.00  0.00    +0.000 C 
BRANCH  23  24
ATOM     24  O2  UNL     1      -3.532  69.325  20.342  0.00  0.00    +0.000 OA
ATOM     25  H11 UNL     1      -2.873  70.035  20.561  0.00  0.00    +0.000 HD
ENDBRANCH  23  24
ENDBRANCH   5  23
TORSDOF 8
ENDMDL
