MODEL 1
REMARK VINA RESULT:      -4.1      0.000      0.000
REMARK  Name = .\Catechins.pdb
REMARK  8 active torsions:
REMARK  status: ('A' for Active; 'I' for Inactive)
REMARK    1  A    between atoms: C3_3  and  O7_19
REMARK    2  A    between atoms: C4_4  and  O6_18
REMARK    3  A    between atoms: C6_6  and  C7_7
REMARK    4  A    between atoms: C8_8  and  O5_17
REMARK    5  A    between atoms: C9_9  and  O4_16
REMARK    6  A    between atoms: C10_10  and  O3_15
REMARK    7  A    between atoms: C11_11  and  C12_13
REMARK    8  A    between atoms: C12_13  and  O2_14
REMARK                            x       y       z     vdW  Elec       q    Type
REMARK                         _______ _______ _______ _____ _____    ______ ____
ROOT
ATOM      1  C7  UNL     1      10.262  57.201   0.329  0.00  0.00    +0.000 C 
ATOM      2  C8  UNL     1      10.823  58.639   0.484  0.00  0.00    +0.000 C 
ATOM      3  C9  UNL     1      12.015  58.673   1.480  0.00  0.00    +0.000 C 
ATOM      4  C10 UNL     1      11.859  57.573   2.544  0.00  0.00    +0.000 C 
ATOM      5  C11 UNL     1      11.711  56.169   1.858  0.00  0.00    +0.000 C 
ATOM      6  O1  UNL     1      11.305  56.258   0.496  0.00  0.00    +0.000 OA
ENDROOT
BRANCH   1  12
ATOM      7  C1  UNL     1       8.793  55.927  -1.301  0.00  0.00    +0.000 A 
ATOM      8  C2  UNL     1       8.240  55.751  -2.572  0.00  0.00    +0.000 A 
ATOM      9  C3  UNL     1       8.526  56.662  -3.598  0.00  0.00    +0.000 A 
ATOM     10  C4  UNL     1       9.374  57.748  -3.348  0.00  0.00    +0.000 A 
ATOM     11  C5  UNL     1       9.928  57.925  -2.072  0.00  0.00    +0.000 A 
ATOM     12  C6  UNL     1       9.631  57.025  -1.035  0.00  0.00    +0.000 A 
BRANCH  10  13
ATOM     13  O6  UNL     1       9.662  58.647  -4.374  0.00  0.00    +0.000 OA
ATOM     14  H15 UNL     1       9.465  59.637  -4.282  0.00  0.00    +0.000 HD
ENDBRANCH  10  13
BRANCH   9  15
ATOM     15  O7  UNL     1       7.977  56.490  -4.866  0.00  0.00    +0.000 OA
ATOM     16  H16 UNL     1       7.670  57.279  -5.423  0.00  0.00    +0.000 HD
ENDBRANCH   9  15
ENDBRANCH   1  12
BRANCH   4  17
ATOM     17  O3  UNL     1      12.947  57.601   3.436  0.00  0.00    +0.000 OA
ATOM     18  H12 UNL     1      13.772  57.499   2.894  0.00  0.00    +0.000 HD
ENDBRANCH   4  17
BRANCH   3  19
ATOM     19  O4  UNL     1      12.116  59.930   2.097  0.00  0.00    +0.000 OA
ATOM     20  H13 UNL     1      12.610  60.517   1.468  0.00  0.00    +0.000 HD
ENDBRANCH   3  19
BRANCH   2  21
ATOM     21  O5  UNL     1       9.799  59.526   0.866  0.00  0.00    +0.000 OA
ATOM     22  H14 UNL     1      10.118  60.449   0.688  0.00  0.00    +0.000 HD
ENDBRANCH   2  21
BRANCH   5  23
ATOM     23  C12 UNL     1      13.009  55.350   1.907  0.00  0.00    +0.000 C 
BRANCH  23  24
ATOM     24  O2  UNL     1      13.108  54.691   3.140  0.00  0.00    +0.000 OA
ATOM     25  H11 UNL     1      13.240  53.730   2.929  0.00  0.00    +0.000 HD
ENDBRANCH  23  24
ENDBRANCH   5  23
TORSDOF 8
ENDMDL
MODEL 2
REMARK VINA RESULT:      -4.0      0.674      1.555
REMARK  Name = .\Catechins.pdb
REMARK  8 active torsions:
REMARK  status: ('A' for Active; 'I' for Inactive)
REMARK    1  A    between atoms: C3_3  and  O7_19
REMARK    2  A    between atoms: C4_4  and  O6_18
REMARK    3  A    between atoms: C6_6  and  C7_7
REMARK    4  A    between atoms: C8_8  and  O5_17
REMARK    5  A    between atoms: C9_9  and  O4_16
REMARK    6  A    between atoms: C10_10  and  O3_15
REMARK    7  A    between atoms: C11_11  and  C12_13
REMARK    8  A    between atoms: C12_13  and  O2_14
REMARK                            x       y       z     vdW  Elec       q    Type
REMARK                         _______ _______ _______ _____ _____    ______ ____
ROOT
ATOM      1  C7  UNL     1      10.466  57.330   0.275  0.00  0.00    +0.000 C 
ATOM      2  C8  UNL     1      10.900  58.804   0.488  0.00  0.00    +0.000 C 
ATOM      3  C9  UNL     1      12.086  58.903   1.486  0.00  0.00    +0.000 C 
ATOM      4  C10 UNL     1      12.028  57.753   2.506  0.00  0.00    +0.000 C 
ATOM      5  C11 UNL     1      12.001  56.370   1.766  0.00  0.00    +0.000 C 
ATOM      6  O1  UNL     1      11.587  56.476   0.407  0.00  0.00    +0.000 OA
ENDROOT
BRANCH   1  12
ATOM      7  C1  UNL     1      10.247  57.968  -2.170  0.00  0.00    +0.000 A 
ATOM      8  C2  UNL     1       9.650  57.823  -3.425  0.00  0.00    +0.000 A 
ATOM      9  C3  UNL     1       8.641  56.871  -3.621  0.00  0.00    +0.000 A 
ATOM     10  C4  UNL     1       8.226  56.066  -2.552  0.00  0.00    +0.000 A 
ATOM     11  C5  UNL     1       8.825  56.212  -1.293  0.00  0.00    +0.000 A 
ATOM     12  C6  UNL     1       9.850  57.153  -1.095  0.00  0.00    +0.000 A 
BRANCH  10  13
ATOM     13  O6  UNL     1       7.216  55.126  -2.749  0.00  0.00    +0.000 OA
ATOM     14  H15 UNL     1       7.136  54.607  -3.616  0.00  0.00    +0.000 HD
ENDBRANCH  10  13
BRANCH   9  15
ATOM     15  O7  UNL     1       8.044  56.723  -4.871  0.00  0.00    +0.000 OA
ATOM     16  H16 UNL     1       7.234  56.129  -5.006  0.00  0.00    +0.000 HD
ENDBRANCH   9  15
ENDBRANCH   1  12
BRANCH   4  17
ATOM     17  O3  UNL     1      13.111  57.840   3.400  0.00  0.00    +0.000 OA
ATOM     18  H12 UNL     1      12.945  57.184   4.126  0.00  0.00    +0.000 HD
ENDBRANCH   4  17
BRANCH   3  19
ATOM     19  O4  UNL     1      12.077  60.139   2.153  0.00  0.00    +0.000 OA
ATOM     20  H13 UNL     1      12.309  60.827   1.477  0.00  0.00    +0.000 HD
ENDBRANCH   3  19
BRANCH   2  21
ATOM     21  O5  UNL     1       9.802  59.583   0.902  0.00  0.00    +0.000 OA
ATOM     22  H14 UNL     1       9.709  59.474   1.884  0.00  0.00    +0.000 HD
ENDBRANCH   2  21
BRANCH   5  23
ATOM     23  C12 UNL     1      13.366  55.665   1.784  0.00  0.00    +0.000 C 
BRANCH  23  24
ATOM     24  O2  UNL     1      13.534  54.988   3.000  0.00  0.00    +0.000 OA
ATOM     25  H11 UNL     1      14.292  55.434   3.461  0.00  0.00    +0.000 HD
ENDBRANCH  23  24
ENDBRANCH   5  23
TORSDOF 8
ENDMDL
MODEL 3
REMARK VINA RESULT:      -3.9      1.509      2.933
REMARK  Name = .\Catechins.pdb
REMARK  8 active torsions:
REMARK  status: ('A' for Active; 'I' for Inactive)
REMARK    1  A    between atoms: C3_3  and  O7_19
REMARK    2  A    between atoms: C4_4  and  O6_18
REMARK    3  A    between atoms: C6_6  and  C7_7
REMARK    4  A    between atoms: C8_8  and  O5_17
REMARK    5  A    between atoms: C9_9  and  O4_16
REMARK    6  A    between atoms: C10_10  and  O3_15
REMARK    7  A    between atoms: C11_11  and  C12_13
REMARK    8  A    between atoms: C12_13  and  O2_14
REMARK                            x       y       z     vdW  Elec       q    Type
REMARK                         _______ _______ _______ _____ _____    ______ ____
ROOT
ATOM      1  C7  UNL     1      11.126  57.061  -0.107  0.00  0.00    +0.000 C 
ATOM      2  C8  UNL     1      10.245  56.589   1.080  0.00  0.00    +0.000 C 
ATOM      3  C9  UNL     1      10.651  57.302   2.399  0.00  0.00    +0.000 C 
ATOM      4  C10 UNL     1      12.148  57.653   2.382  0.00  0.00    +0.000 C 
ATOM      5  C11 UNL     1      12.490  58.521   1.121  0.00  0.00    +0.000 C 
ATOM      6  O1  UNL     1      11.514  58.408   0.089  0.00  0.00    +0.000 OA
ENDROOT
BRANCH   1  12
ATOM      7  C1  UNL     1      10.860  57.528  -2.586  0.00  0.00    +0.000 A 
ATOM      8  C2  UNL     1      10.138  57.438  -3.779  0.00  0.00    +0.000 A 
ATOM      9  C3  UNL     1       8.909  56.765  -3.811  0.00  0.00    +0.000 A 
ATOM     10  C4  UNL     1       8.402  56.186  -2.641  0.00  0.00    +0.000 A 
ATOM     11  C5  UNL     1       9.127  56.276  -1.444  0.00  0.00    +0.000 A 
ATOM     12  C6  UNL     1      10.368  56.935  -1.410  0.00  0.00    +0.000 A 
BRANCH  10  13
ATOM     13  O6  UNL     1       7.175  55.524  -2.675  0.00  0.00    +0.000 OA
ATOM     14  H15 UNL     1       6.351  55.957  -3.075  0.00  0.00    +0.000 HD
ENDBRANCH  10  13
BRANCH   9  15
ATOM     15  O7  UNL     1       8.187  56.672  -4.999  0.00  0.00    +0.000 OA
ATOM     16  H16 UNL     1       8.421  57.236  -5.808  0.00  0.00    +0.000 HD
ENDBRANCH   9  15
ENDBRANCH   1  12
BRANCH   4  17
ATOM     17  O3  UNL     1      12.507  58.310   3.574  0.00  0.00    +0.000 OA
ATOM     18  H12 UNL     1      12.452  59.285   3.400  0.00  0.00    +0.000 HD
ENDBRANCH   4  17
BRANCH   3  19
ATOM     19  O4  UNL     1      10.356  56.499   3.513  0.00  0.00    +0.000 OA
ATOM     20  H13 UNL     1       9.408  56.676   3.747  0.00  0.00    +0.000 HD
ENDBRANCH   3  19
BRANCH   2  21
ATOM     21  O5  UNL     1      10.302  55.188   1.205  0.00  0.00    +0.000 OA
ATOM     22  H14 UNL     1      11.096  54.872   0.701  0.00  0.00    +0.000 HD
ENDBRANCH   2  21
BRANCH   5  23
ATOM     23  C12 UNL     1      12.644  60.013   1.456  0.00  0.00    +0.000 C 
BRANCH  23  24
ATOM     24  O2  UNL     1      11.410  60.538   1.861  0.00  0.00    +0.000 OA
ATOM     25  H11 UNL     1      11.270  61.360   1.323  0.00  0.00    +0.000 HD
ENDBRANCH  23  24
ENDBRANCH   5  23
TORSDOF 8
ENDMDL
MODEL 4
REMARK VINA RESULT:      -3.8      1.940      6.352
REMARK  Name = .\Catechins.pdb
REMARK  8 active torsions:
REMARK  status: ('A' for Active; 'I' for Inactive)
REMARK    1  A    between atoms: C3_3  and  O7_19
REMARK    2  A    between atoms: C4_4  and  O6_18
REMARK    3  A    between atoms: C6_6  and  C7_7
REMARK    4  A    between atoms: C8_8  and  O5_17
REMARK    5  A    between atoms: C9_9  and  O4_16
REMARK    6  A    between atoms: C10_10  and  O3_15
REMARK    7  A    between atoms: C11_11  and  C12_13
REMARK    8  A    between atoms: C12_13  and  O2_14
REMARK                            x       y       z     vdW  Elec       q    Type
REMARK                         _______ _______ _______ _____ _____    ______ ____
ROOT
ATOM      1  C7  UNL     1       9.960  57.881  -1.203  0.00  0.00    +0.000 C 
ATOM      2  C8  UNL     1       9.860  56.333  -1.239  0.00  0.00    +0.000 C 
ATOM      3  C9  UNL     1       9.366  55.833  -2.624  0.00  0.00    +0.000 C 
ATOM      4  C10 UNL     1       8.446  56.879  -3.276  0.00  0.00    +0.000 C 
ATOM      5  C11 UNL     1       9.182  58.260  -3.383  0.00  0.00    +0.000 C 
ATOM      6  O1  UNL     1      10.287  58.370  -2.491  0.00  0.00    +0.000 OA
ENDROOT
BRANCH   1  12
ATOM      7  C1  UNL     1      12.129  57.506   0.058  0.00  0.00    +0.000 A 
ATOM      8  C2  UNL     1      13.081  57.900   1.002  0.00  0.00    +0.000 A 
ATOM      9  C3  UNL     1      12.927  59.106   1.699  0.00  0.00    +0.000 A 
ATOM     10  C4  UNL     1      11.810  59.915   1.452  0.00  0.00    +0.000 A 
ATOM     11  C5  UNL     1      10.855  59.519   0.504  0.00  0.00    +0.000 A 
ATOM     12  C6  UNL     1      11.014  58.319  -0.210  0.00  0.00    +0.000 A 
BRANCH  10  13
ATOM     13  O6  UNL     1      11.656  61.110   2.153  0.00  0.00    +0.000 OA
ATOM     14  H15 UNL     1      11.804  61.160   3.154  0.00  0.00    +0.000 HD
ENDBRANCH  10  13
BRANCH   9  15
ATOM     15  O7  UNL     1      13.874  59.503   2.640  0.00  0.00    +0.000 OA
ATOM     16  H16 UNL     1      13.641  60.142   3.391  0.00  0.00    +0.000 HD
ENDBRANCH   9  15
ENDBRANCH   1  12
BRANCH   4  17
ATOM     17  O3  UNL     1       8.011  56.426  -4.535  0.00  0.00    +0.000 OA
ATOM     18  H12 UNL     1       8.768  55.933  -4.947  0.00  0.00    +0.000 HD
ENDBRANCH   4  17
BRANCH   3  19
ATOM     19  O4  UNL     1       8.691  54.607  -2.502  0.00  0.00    +0.000 OA
ATOM     20  H13 UNL     1       9.228  53.937  -2.999  0.00  0.00    +0.000 HD
ENDBRANCH   3  19
BRANCH   2  21
ATOM     21  O5  UNL     1       9.038  55.871  -0.193  0.00  0.00    +0.000 OA
ATOM     22  H14 UNL     1       8.157  55.636  -0.584  0.00  0.00    +0.000 HD
ENDBRANCH   2  21
BRANCH   5  23
ATOM     23  C12 UNL     1       9.697  58.545  -4.802  0.00  0.00    +0.000 C 
BRANCH  23  24
ATOM     24  O2  UNL     1      10.850  57.787  -5.049  0.00  0.00    +0.000 OA
ATOM     25  H11 UNL     1      11.171  58.059  -5.948  0.00  0.00    +0.000 HD
ENDBRANCH  23  24
ENDBRANCH   5  23
TORSDOF 8
ENDMDL
MODEL 5
REMARK VINA RESULT:      -3.8      2.024      2.634
REMARK  Name = .\Catechins.pdb
REMARK  8 active torsions:
REMARK  status: ('A' for Active; 'I' for Inactive)
REMARK    1  A    between atoms: C3_3  and  O7_19
REMARK    2  A    between atoms: C4_4  and  O6_18
REMARK    3  A    between atoms: C6_6  and  C7_7
REMARK    4  A    between atoms: C8_8  and  O5_17
REMARK    5  A    between atoms: C9_9  and  O4_16
REMARK    6  A    between atoms: C10_10  and  O3_15
REMARK    7  A    between atoms: C11_11  and  C12_13
REMARK    8  A    between atoms: C12_13  and  O2_14
REMARK                            x       y       z     vdW  Elec       q    Type
REMARK                         _______ _______ _______ _____ _____    ______ ____
ROOT
ATOM      1  C7  UNL     1      10.396  57.618   0.093  0.00  0.00    +0.000 C 
ATOM      2  C8  UNL     1      11.227  58.333   1.190  0.00  0.00    +0.000 C 
ATOM      3  C9  UNL     1      11.559  57.368   2.362  0.00  0.00    +0.000 C 
ATOM      4  C10 UNL     1      10.454  56.311   2.518  0.00  0.00    +0.000 C 
ATOM      5  C11 UNL     1      10.244  55.539   1.169  0.00  0.00    +0.000 C 
ATOM      6  O1  UNL     1      10.748  56.247   0.040  0.00  0.00    +0.000 OA
ENDROOT
BRANCH   1  12
ATOM      7  C1  UNL     1       9.574  58.491  -2.143  0.00  0.00    +0.000 A 
ATOM      8  C2  UNL     1       9.811  59.050  -3.402  0.00  0.00    +0.000 A 
ATOM      9  C3  UNL     1      11.116  59.374  -3.796  0.00  0.00    +0.000 A 
ATOM     10  C4  UNL     1      12.187  59.129  -2.926  0.00  0.00    +0.000 A 
ATOM     11  C5  UNL     1      11.949  58.568  -1.663  0.00  0.00    +0.000 A 
ATOM     12  C6  UNL     1      10.640  58.258  -1.256  0.00  0.00    +0.000 A 
BRANCH  10  13
ATOM     13  O6  UNL     1      13.485  59.445  -3.326  0.00  0.00    +0.000 OA
ATOM     14  H15 UNL     1      14.288  59.191  -2.763  0.00  0.00    +0.000 HD
ENDBRANCH  10  13
BRANCH   9  15
ATOM     15  O7  UNL     1      11.356  59.933  -5.049  0.00  0.00    +0.000 OA
ATOM     16  H16 UNL     1      12.124  60.575  -5.206  0.00  0.00    +0.000 HD
ENDBRANCH   9  15
ENDBRANCH   1  12
BRANCH   4  17
ATOM     17  O3  UNL     1      10.766  55.433   3.573  0.00  0.00    +0.000 OA
ATOM     18  H12 UNL     1      11.731  55.546   3.772  0.00  0.00    +0.000 HD
ENDBRANCH   4  17
BRANCH   3  19
ATOM     19  O4  UNL     1      11.722  58.077   3.563  0.00  0.00    +0.000 OA
ATOM     20  H13 UNL     1      12.490  58.691   3.429  0.00  0.00    +0.000 HD
ENDBRANCH   3  19
BRANCH   2  21
ATOM     21  O5  UNL     1      10.557  59.487   1.639  0.00  0.00    +0.000 OA
ATOM     22  H14 UNL     1      11.244  60.147   1.915  0.00  0.00    +0.000 HD
ENDBRANCH   2  21
BRANCH   5  23
ATOM     23  C12 UNL     1      10.896  54.149   1.177  0.00  0.00    +0.000 C 
BRANCH  23  24
ATOM     24  O2  UNL     1      12.285  54.276   1.039  0.00  0.00    +0.000 OA
ATOM     25  H11 UNL     1      12.625  54.564   1.925  0.00  0.00    +0.000 HD
ENDBRANCH  23  24
ENDBRANCH   5  23
TORSDOF 8
ENDMDL
MODEL 6
REMARK VINA RESULT:      -3.7      2.012      6.249
REMARK  Name = .\Catechins.pdb
REMARK  8 active torsions:
REMARK  status: ('A' for Active; 'I' for Inactive)
REMARK    1  A    between atoms: C3_3  and  O7_19
REMARK    2  A    between atoms: C4_4  and  O6_18
REMARK    3  A    between atoms: C6_6  and  C7_7
REMARK    4  A    between atoms: C8_8  and  O5_17
REMARK    5  A    between atoms: C9_9  and  O4_16
REMARK    6  A    between atoms: C10_10  and  O3_15
REMARK    7  A    between atoms: C11_11  and  C12_13
REMARK    8  A    between atoms: C12_13  and  O2_14
REMARK                            x       y       z     vdW  Elec       q    Type
REMARK                         _______ _______ _______ _____ _____    ______ ____
ROOT
ATOM      1  C7  UNL     1      11.269  57.949  -1.648  0.00  0.00    +0.000 C 
ATOM      2  C8  UNL     1      11.365  59.146  -2.631  0.00  0.00    +0.000 C 
ATOM      3  C9  UNL     1      10.292  59.043  -3.749  0.00  0.00    +0.000 C 
ATOM      4  C10 UNL     1       9.962  57.570  -4.045  0.00  0.00    +0.000 C 
ATOM      5  C11 UNL     1       9.510  56.839  -2.732  0.00  0.00    +0.000 C 
ATOM      6  O1  UNL     1       9.924  57.516  -1.550  0.00  0.00    +0.000 OA
ENDROOT
BRANCH   1  12
ATOM      7  C1  UNL     1      12.465  57.424   0.526  0.00  0.00    +0.000 A 
ATOM      8  C2  UNL     1      12.902  57.786   1.803  0.00  0.00    +0.000 A 
ATOM      9  C3  UNL     1      12.646  59.073   2.297  0.00  0.00    +0.000 A 
ATOM     10  C4  UNL     1      11.945  59.994   1.509  0.00  0.00    +0.000 A 
ATOM     11  C5  UNL     1      11.507  59.630   0.227  0.00  0.00    +0.000 A 
ATOM     12  C6  UNL     1      11.776  58.347  -0.280  0.00  0.00    +0.000 A 
BRANCH  10  13
ATOM     13  O6  UNL     1      11.685  61.270   2.007  0.00  0.00    +0.000 OA
ATOM     14  H15 UNL     1      10.818  61.486   2.486  0.00  0.00    +0.000 HD
ENDBRANCH  10  13
BRANCH   9  15
ATOM     15  O7  UNL     1      13.080  59.439   3.569  0.00  0.00    +0.000 OA
ATOM     16  H16 UNL     1      12.708  60.254   4.043  0.00  0.00    +0.000 HD
ENDBRANCH   9  15
ENDBRANCH   1  12
BRANCH   4  17
ATOM     17  O3  UNL     1       8.981  57.482  -5.049  0.00  0.00    +0.000 OA
ATOM     18  H12 UNL     1       8.834  56.518  -5.232  0.00  0.00    +0.000 HD
ENDBRANCH   4  17
BRANCH   3  19
ATOM     19  O4  UNL     1      10.726  59.684  -4.920  0.00  0.00    +0.000 OA
ATOM     20  H13 UNL     1      11.123  58.981  -5.498  0.00  0.00    +0.000 HD
ENDBRANCH   3  19
BRANCH   2  21
ATOM     21  O5  UNL     1      12.665  59.240  -3.163  0.00  0.00    +0.000 OA
ATOM     22  H14 UNL     1      12.866  60.201  -3.301  0.00  0.00    +0.000 HD
ENDBRANCH   2  21
BRANCH   5  23
ATOM     23  C12 UNL     1       7.987  56.655  -2.655  0.00  0.00    +0.000 C 
BRANCH  23  24
ATOM     24  O2  UNL     1       7.624  55.442  -3.256  0.00  0.00    +0.000 OA
ATOM     25  H11 UNL     1       8.198  54.746  -2.841  0.00  0.00    +0.000 HD
ENDBRANCH  23  24
ENDBRANCH   5  23
TORSDOF 8
ENDMDL
MODEL 7
REMARK VINA RESULT:      -3.7      1.613      2.205
REMARK  Name = .\Catechins.pdb
REMARK  8 active torsions:
REMARK  status: ('A' for Active; 'I' for Inactive)
REMARK    1  A    between atoms: C3_3  and  O7_19
REMARK    2  A    between atoms: C4_4  and  O6_18
REMARK    3  A    between atoms: C6_6  and  C7_7
REMARK    4  A    between atoms: C8_8  and  O5_17
REMARK    5  A    between atoms: C9_9  and  O4_16
REMARK    6  A    between atoms: C10_10  and  O3_15
REMARK    7  A    between atoms: C11_11  and  C12_13
REMARK    8  A    between atoms: C12_13  and  O2_14
REMARK                            x       y       z     vdW  Elec       q    Type
REMARK                         _______ _______ _______ _____ _____    ______ ____
ROOT
ATOM      1  C7  UNL     1      10.262  58.179  -0.385  0.00  0.00    +0.000 C 
ATOM      2  C8  UNL     1      11.707  58.658  -0.684  0.00  0.00    +0.000 C 
ATOM      3  C9  UNL     1      12.593  58.602   0.591  0.00  0.00    +0.000 C 
ATOM      4  C10 UNL     1      11.739  58.825   1.850  0.00  0.00    +0.000 C 
ATOM      5  C11 UNL     1      10.569  57.781   1.906  0.00  0.00    +0.000 C 
ATOM      6  O1  UNL     1      10.284  57.199   0.638  0.00  0.00    +0.000 OA
ENDROOT
BRANCH   1  12
ATOM      7  C1  UNL     1       9.459  58.388  -2.782  0.00  0.00    +0.000 A 
ATOM      8  C2  UNL     1       8.843  57.858  -3.919  0.00  0.00    +0.000 A 
ATOM      9  C3  UNL     1       8.379  56.535  -3.917  0.00  0.00    +0.000 A 
ATOM     10  C4  UNL     1       8.529  55.746  -2.770  0.00  0.00    +0.000 A 
ATOM     11  C5  UNL     1       9.147  56.279  -1.629  0.00  0.00    +0.000 A 
ATOM     12  C6  UNL     1       9.630  57.599  -1.631  0.00  0.00    +0.000 A 
BRANCH  10  13
ATOM     13  O6  UNL     1       8.059  54.434  -2.770  0.00  0.00    +0.000 OA
ATOM     14  H15 UNL     1       8.322  53.777  -2.045  0.00  0.00    +0.000 HD
ENDBRANCH  10  13
BRANCH   9  15
ATOM     15  O7  UNL     1       7.766  56.002  -5.048  0.00  0.00    +0.000 OA
ATOM     16  H16 UNL     1       8.058  56.263  -5.983  0.00  0.00    +0.000 HD
ENDBRANCH   9  15
ENDBRANCH   1  12
BRANCH   4  17
ATOM     17  O3  UNL     1      12.544  58.761   3.002  0.00  0.00    +0.000 OA
ATOM     18  H12 UNL     1      12.837  59.687   3.206  0.00  0.00    +0.000 HD
ENDBRANCH   4  17
BRANCH   3  19
ATOM     19  O4  UNL     1      13.620  59.559   0.530  0.00  0.00    +0.000 OA
ATOM     20  H13 UNL     1      13.935  59.697   1.460  0.00  0.00    +0.000 HD
ENDBRANCH   3  19
BRANCH   2  21
ATOM     21  O5  UNL     1      11.688  59.948  -1.249  0.00  0.00    +0.000 OA
ATOM     22  H14 UNL     1      11.136  60.526  -0.663  0.00  0.00    +0.000 HD
ENDBRANCH   2  21
BRANCH   5  23
ATOM     23  C12 UNL     1      10.847  56.636   2.893  0.00  0.00    +0.000 C 
BRANCH  23  24
ATOM     24  O2  UNL     1      10.163  55.483   2.485  0.00  0.00    +0.000 OA
ATOM     25  H11 UNL     1       9.884  55.019   3.317  0.00  0.00    +0.000 HD
ENDBRANCH  23  24
ENDBRANCH   5  23
TORSDOF 8
ENDMDL
MODEL 8
REMARK VINA RESULT:      -3.5      1.700      1.974
REMARK  Name = .\Catechins.pdb
REMARK  8 active torsions:
REMARK  status: ('A' for Active; 'I' for Inactive)
REMARK    1  A    between atoms: C3_3  and  O7_19
REMARK    2  A    between atoms: C4_4  and  O6_18
REMARK    3  A    between atoms: C6_6  and  C7_7
REMARK    4  A    between atoms: C8_8  and  O5_17
REMARK    5  A    between atoms: C9_9  and  O4_16
REMARK    6  A    between atoms: C10_10  and  O3_15
REMARK    7  A    between atoms: C11_11  and  C12_13
REMARK    8  A    between atoms: C12_13  and  O2_14
REMARK                            x       y       z     vdW  Elec       q    Type
REMARK                         _______ _______ _______ _____ _____    ______ ____
ROOT
ATOM      1  C7  UNL     1       9.872  57.133  -0.541  0.00  0.00    +0.000 C 
ATOM      2  C8  UNL     1      10.589  58.435  -0.985  0.00  0.00    +0.000 C 
ATOM      3  C9  UNL     1      11.597  58.918   0.095  0.00  0.00    +0.000 C 
ATOM      4  C10 UNL     1      11.123  58.502   1.497  0.00  0.00    +0.000 C 
ATOM      5  C11 UNL     1      10.901  56.950   1.559  0.00  0.00    +0.000 C 
ATOM      6  O1  UNL     1      10.738  56.362   0.272  0.00  0.00    +0.000 OA
ENDROOT
BRANCH   1  12
ATOM      7  C1  UNL     1       8.100  56.011  -1.967  0.00  0.00    +0.000 A 
ATOM      8  C2  UNL     1       7.723  55.233  -3.065  0.00  0.00    +0.000 A 
ATOM      9  C3  UNL     1       8.692  54.748  -3.953  0.00  0.00    +0.000 A 
ATOM     10  C4  UNL     1      10.045  55.039  -3.734  0.00  0.00    +0.000 A 
ATOM     11  C5  UNL     1      10.423  55.820  -2.632  0.00  0.00    +0.000 A 
ATOM     12  C6  UNL     1       9.453  56.324  -1.748  0.00  0.00    +0.000 A 
BRANCH  10  13
ATOM     13  O6  UNL     1      11.007  54.548  -4.614  0.00  0.00    +0.000 OA
ATOM     14  H15 UNL     1      11.113  54.925  -5.549  0.00  0.00    +0.000 HD
ENDBRANCH  10  13
BRANCH   9  15
ATOM     15  O7  UNL     1       8.320  53.973  -5.049  0.00  0.00    +0.000 OA
ATOM     16  H16 UNL     1       8.399  52.963  -5.037  0.00  0.00    +0.000 HD
ENDBRANCH   9  15
ENDBRANCH   1  12
BRANCH   4  17
ATOM     17  O3  UNL     1      12.045  58.931   2.470  0.00  0.00    +0.000 OA
ATOM     18  H12 UNL     1      12.944  58.914   2.048  0.00  0.00    +0.000 HD
ENDBRANCH   4  17
BRANCH   3  19
ATOM     19  O4  UNL     1      11.764  60.311   0.036  0.00  0.00    +0.000 OA
ATOM     20  H13 UNL     1      10.882  60.712   0.250  0.00  0.00    +0.000 HD
ENDBRANCH   3  19
BRANCH   2  21
ATOM     21  O5  UNL     1       9.645  59.432  -1.300  0.00  0.00    +0.000 OA
ATOM     22  H14 UNL     1       9.500  59.978  -0.485  0.00  0.00    +0.000 HD
ENDBRANCH   2  21
BRANCH   5  23
ATOM     23  C12 UNL     1      12.052  56.217   2.265  0.00  0.00    +0.000 C 
BRANCH  23  24
ATOM     24  O2  UNL     1      13.209  56.282   1.477  0.00  0.00    +0.000 OA
ATOM     25  H11 UNL     1      13.729  57.059   1.814  0.00  0.00    +0.000 HD
ENDBRANCH  23  24
ENDBRANCH   5  23
TORSDOF 8
ENDMDL
MODEL 9
REMARK VINA RESULT:      -3.5      1.817      6.077
REMARK  Name = .\Catechins.pdb
REMARK  8 active torsions:
REMARK  status: ('A' for Active; 'I' for Inactive)
REMARK    1  A    between atoms: C3_3  and  O7_19
REMARK    2  A    between atoms: C4_4  and  O6_18
REMARK    3  A    between atoms: C6_6  and  C7_7
REMARK    4  A    between atoms: C8_8  and  O5_17
REMARK    5  A    between atoms: C9_9  and  O4_16
REMARK    6  A    between atoms: C10_10  and  O3_15
REMARK    7  A    between atoms: C11_11  and  C12_13
REMARK    8  A    between atoms: C12_13  and  O2_14
REMARK                            x       y       z     vdW  Elec       q    Type
REMARK                         _______ _______ _______ _____ _____    ______ ____
ROOT
ATOM      1  C7  UNL     1      10.898  57.611  -1.683  0.00  0.00    +0.000 C 
ATOM      2  C8  UNL     1       9.500  58.283  -1.653  0.00  0.00    +0.000 C 
ATOM      3  C9  UNL     1       8.598  57.756  -2.804  0.00  0.00    +0.000 C 
ATOM      4  C10 UNL     1       9.455  57.352  -4.016  0.00  0.00    +0.000 C 
ATOM      5  C11 UNL     1      10.535  56.297  -3.591  0.00  0.00    +0.000 C 
ATOM      6  O1  UNL     1      10.787  56.293  -2.189  0.00  0.00    +0.000 OA
ENDROOT
BRANCH   1  12
ATOM      7  C1  UNL     1      12.889  57.557  -0.112  0.00  0.00    +0.000 A 
ATOM      8  C2  UNL     1      13.434  57.486   1.173  0.00  0.00    +0.000 A 
ATOM      9  C3  UNL     1      12.595  57.419   2.293  0.00  0.00    +0.000 A 
ATOM     10  C4  UNL     1      11.205  57.417   2.122  0.00  0.00    +0.000 A 
ATOM     11  C5  UNL     1      10.658  57.488   0.833  0.00  0.00    +0.000 A 
ATOM     12  C6  UNL     1      11.495  57.573  -0.293  0.00  0.00    +0.000 A 
BRANCH  10  13
ATOM     13  O6  UNL     1      10.373  57.341   3.238  0.00  0.00    +0.000 OA
ATOM     14  H15 UNL     1      10.429  56.567   3.889  0.00  0.00    +0.000 HD
ENDBRANCH  10  13
BRANCH   9  15
ATOM     15  O7  UNL     1      13.135  57.350   3.575  0.00  0.00    +0.000 OA
ATOM     16  H16 UNL     1      13.218  56.469   4.069  0.00  0.00    +0.000 HD
ENDBRANCH   9  15
ENDBRANCH   1  12
BRANCH   4  17
ATOM     17  O3  UNL     1       8.634  56.864  -5.049  0.00  0.00    +0.000 OA
ATOM     18  H12 UNL     1       8.684  55.873  -5.020  0.00  0.00    +0.000 HD
ENDBRANCH   4  17
BRANCH   3  19
ATOM     19  O4  UNL     1       7.653  58.723  -3.182  0.00  0.00    +0.000 OA
ATOM     20  H13 UNL     1       7.379  59.192  -2.352  0.00  0.00    +0.000 HD
ENDBRANCH   3  19
BRANCH   2  21
ATOM     21  O5  UNL     1       9.629  59.685  -1.692  0.00  0.00    +0.000 OA
ATOM     22  H14 UNL     1      10.597  59.897  -1.737  0.00  0.00    +0.000 HD
ENDBRANCH   2  21
BRANCH   5  23
ATOM     23  C12 UNL     1      10.155  54.866  -4.001  0.00  0.00    +0.000 C 
BRANCH  23  24
ATOM     24  O2  UNL     1       8.958  54.495  -3.374  0.00  0.00    +0.000 OA
ATOM     25  H11 UNL     1       8.227  54.842  -3.949  0.00  0.00    +0.000 HD
ENDBRANCH  23  24
ENDBRANCH   5  23
TORSDOF 8
ENDMDL
