MODEL 1
REMARK VINA RESULT:      -4.7      0.000      0.000
REMARK  Name = .\Catechins.pdb
REMARK  8 active torsions:
REMARK  status: ('A' for Active; 'I' for Inactive)
REMARK    1  A    between atoms: C3_3  and  O7_19
REMARK    2  A    between atoms: C4_4  and  O6_18
REMARK    3  A    between atoms: C6_6  and  C7_7
REMARK    4  A    between atoms: C8_8  and  O5_17
REMARK    5  A    between atoms: C9_9  and  O4_16
REMARK    6  A    between atoms: C10_10  and  O3_15
REMARK    7  A    between atoms: C11_11  and  C12_13
REMARK    8  A    between atoms: C12_13  and  O2_14
REMARK                            x       y       z     vdW  Elec       q    Type
REMARK                         _______ _______ _______ _____ _____    ______ ____
ROOT
ATOM      1  C7  UNL     1     -18.650  61.753 -15.806  0.00  0.00    +0.000 C 
ATOM      2  C8  UNL     1     -19.858  62.634 -16.220  0.00  0.00    +0.000 C 
ATOM      3  C9  UNL     1     -19.972  63.892 -15.316  0.00  0.00    +0.000 C 
ATOM      4  C10 UNL     1     -19.426  63.596 -13.909  0.00  0.00    +0.000 C 
ATOM      5  C11 UNL     1     -17.949  63.073 -13.998  0.00  0.00    +0.000 C 
ATOM      6  O1  UNL     1     -17.616  62.569 -15.288  0.00  0.00    +0.000 OA
ENDROOT
BRANCH   1  12
ATOM      7  C1  UNL     1     -18.147  61.535 -18.282  0.00  0.00    +0.000 A 
ATOM      8  C2  UNL     1     -17.701  60.796 -19.382  0.00  0.00    +0.000 A 
ATOM      9  C3  UNL     1     -17.248  59.480 -19.211  0.00  0.00    +0.000 A 
ATOM     10  C4  UNL     1     -17.249  58.904 -17.934  0.00  0.00    +0.000 A 
ATOM     11  C5  UNL     1     -17.696  59.647 -16.831  0.00  0.00    +0.000 A 
ATOM     12  C6  UNL     1     -18.134  60.972 -16.994  0.00  0.00    +0.000 A 
BRANCH  10  13
ATOM     13  O6  UNL     1     -16.805  57.593 -17.770  0.00  0.00    +0.000 OA
ATOM     14  H15 UNL     1     -16.620  57.207 -16.851  0.00  0.00    +0.000 HD
ENDBRANCH  10  13
BRANCH   9  15
ATOM     15  O7  UNL     1     -16.802  58.741 -20.304  0.00  0.00    +0.000 OA
ATOM     16  H16 UNL     1     -16.049  58.069 -20.218  0.00  0.00    +0.000 HD
ENDBRANCH   9  15
ENDBRANCH   1  12
BRANCH   4  17
ATOM     17  O3  UNL     1     -19.521  64.742 -13.099  0.00  0.00    +0.000 OA
ATOM     18  H12 UNL     1     -18.686  65.263 -13.229  0.00  0.00    +0.000 HD
ENDBRANCH   4  17
BRANCH   3  19
ATOM     19  O4  UNL     1     -21.304  64.330 -15.234  0.00  0.00    +0.000 OA
ATOM     20  H13 UNL     1     -21.404  65.063 -15.895  0.00  0.00    +0.000 HD
ENDBRANCH   3  19
BRANCH   2  21
ATOM     21  O5  UNL     1     -21.044  61.875 -16.210  0.00  0.00    +0.000 OA
ATOM     22  H14 UNL     1     -21.799  62.494 -16.385  0.00  0.00    +0.000 HD
ENDBRANCH   2  21
BRANCH   5  23
ATOM     23  C12 UNL     1     -16.919  64.153 -13.637  0.00  0.00    +0.000 C 
BRANCH  23  24
ATOM     24  O2  UNL     1     -16.517  63.999 -12.304  0.00  0.00    +0.000 OA
ATOM     25  H11 UNL     1     -17.003  64.693 -11.787  0.00  0.00    +0.000 HD
ENDBRANCH  23  24
ENDBRANCH   5  23
TORSDOF 8
ENDMDL
MODEL 2
REMARK VINA RESULT:      -4.7      2.876      5.567
REMARK  Name = .\Catechins.pdb
REMARK  8 active torsions:
REMARK  status: ('A' for Active; 'I' for Inactive)
REMARK    1  A    between atoms: C3_3  and  O7_19
REMARK    2  A    between atoms: C4_4  and  O6_18
REMARK    3  A    between atoms: C6_6  and  C7_7
REMARK    4  A    between atoms: C8_8  and  O5_17
REMARK    5  A    between atoms: C9_9  and  O4_16
REMARK    6  A    between atoms: C10_10  and  O3_15
REMARK    7  A    between atoms: C11_11  and  C12_13
REMARK    8  A    between atoms: C12_13  and  O2_14
REMARK                            x       y       z     vdW  Elec       q    Type
REMARK                         _______ _______ _______ _____ _____    ______ ____
ROOT
ATOM      1  C7  UNL     1     -18.271  61.232 -17.955  0.00  0.00    +0.000 C 
ATOM      2  C8  UNL     1     -17.907  59.954 -18.755  0.00  0.00    +0.000 C 
ATOM      3  C9  UNL     1     -17.622  58.758 -17.806  0.00  0.00    +0.000 C 
ATOM      4  C10 UNL     1     -17.055  59.257 -16.467  0.00  0.00    +0.000 C 
ATOM      5  C11 UNL     1     -18.032  60.299 -15.816  0.00  0.00    +0.000 C 
ATOM      6  O1  UNL     1     -18.934  60.875 -16.756  0.00  0.00    +0.000 OA
ENDROOT
BRANCH   1  12
ATOM      7  C1  UNL     1     -18.951  62.284 -20.161  0.00  0.00    +0.000 A 
ATOM      8  C2  UNL     1     -19.755  63.146 -20.911  0.00  0.00    +0.000 A 
ATOM      9  C3  UNL     1     -20.774  63.881 -20.288  0.00  0.00    +0.000 A 
ATOM     10  C4  UNL     1     -20.981  63.753 -18.909  0.00  0.00    +0.000 A 
ATOM     11  C5  UNL     1     -20.174  62.887 -18.157  0.00  0.00    +0.000 A 
ATOM     12  C6  UNL     1     -19.162  62.135 -18.779  0.00  0.00    +0.000 A 
BRANCH  10  13
ATOM     13  O6  UNL     1     -21.990  64.492 -18.292  0.00  0.00    +0.000 OA
ATOM     14  H15 UNL     1     -21.796  65.099 -17.505  0.00  0.00    +0.000 HD
ENDBRANCH  10  13
BRANCH   9  15
ATOM     15  O7  UNL     1     -21.578  64.741 -21.032  0.00  0.00    +0.000 OA
ATOM     16  H16 UNL     1     -21.530  64.770 -22.044  0.00  0.00    +0.000 HD
ENDBRANCH   9  15
ENDBRANCH   1  12
BRANCH   4  17
ATOM     17  O3  UNL     1     -16.811  58.171 -15.607  0.00  0.00    +0.000 OA
ATOM     18  H12 UNL     1     -15.827  58.042 -15.569  0.00  0.00    +0.000 HD
ENDBRANCH   4  17
BRANCH   3  19
ATOM     19  O4  UNL     1     -16.730  57.850 -18.399  0.00  0.00    +0.000 OA
ATOM     20  H13 UNL     1     -17.074  57.670 -19.313  0.00  0.00    +0.000 HD
ENDBRANCH   3  19
BRANCH   2  21
ATOM     21  O5  UNL     1     -16.821  60.207 -19.615  0.00  0.00    +0.000 OA
ATOM     22  H14 UNL     1     -16.033  60.419 -19.051  0.00  0.00    +0.000 HD
ENDBRANCH   2  21
BRANCH   5  23
ATOM     23  C12 UNL     1     -18.866  59.694 -14.677  0.00  0.00    +0.000 C 
BRANCH  23  24
ATOM     24  O2  UNL     1     -19.704  58.691 -15.184  0.00  0.00    +0.000 OA
ATOM     25  H11 UNL     1     -19.251  58.336 -15.993  0.00  0.00    +0.000 HD
ENDBRANCH  23  24
ENDBRANCH   5  23
TORSDOF 8
ENDMDL
MODEL 3
REMARK VINA RESULT:      -4.6      2.419      6.164
REMARK  Name = .\Catechins.pdb
REMARK  8 active torsions:
REMARK  status: ('A' for Active; 'I' for Inactive)
REMARK    1  A    between atoms: C3_3  and  O7_19
REMARK    2  A    between atoms: C4_4  and  O6_18
REMARK    3  A    between atoms: C6_6  and  C7_7
REMARK    4  A    between atoms: C8_8  and  O5_17
REMARK    5  A    between atoms: C9_9  and  O4_16
REMARK    6  A    between atoms: C10_10  and  O3_15
REMARK    7  A    between atoms: C11_11  and  C12_13
REMARK    8  A    between atoms: C12_13  and  O2_14
REMARK                            x       y       z     vdW  Elec       q    Type
REMARK                         _______ _______ _______ _____ _____    ______ ____
ROOT
ATOM      1  C7  UNL     1     -18.755  62.808 -16.898  0.00  0.00    +0.000 C 
ATOM      2  C8  UNL     1     -17.754  61.767 -17.463  0.00  0.00    +0.000 C 
ATOM      3  C9  UNL     1     -17.741  61.784 -19.016  0.00  0.00    +0.000 C 
ATOM      4  C10 UNL     1     -19.118  62.200 -19.561  0.00  0.00    +0.000 C 
ATOM      5  C11 UNL     1     -19.543  63.588 -18.965  0.00  0.00    +0.000 C 
ATOM      6  O1  UNL     1     -18.838  63.919 -17.773  0.00  0.00    +0.000 OA
ENDROOT
BRANCH   1  12
ATOM      7  C1  UNL     1     -19.223  63.292 -14.452  0.00  0.00    +0.000 A 
ATOM      8  C2  UNL     1     -18.822  63.755 -13.196  0.00  0.00    +0.000 A 
ATOM      9  C3  UNL     1     -17.513  64.215 -12.999  0.00  0.00    +0.000 A 
ATOM     10  C4  UNL     1     -16.607  64.217 -14.068  0.00  0.00    +0.000 A 
ATOM     11  C5  UNL     1     -17.011  63.752 -15.328  0.00  0.00    +0.000 A 
ATOM     12  C6  UNL     1     -18.316  63.273 -15.527  0.00  0.00    +0.000 A 
BRANCH  10  13
ATOM     13  O6  UNL     1     -15.309  64.684 -13.870  0.00  0.00    +0.000 OA
ATOM     14  H15 UNL     1     -14.530  64.047 -13.743  0.00  0.00    +0.000 HD
ENDBRANCH  10  13
BRANCH   9  15
ATOM     15  O7  UNL     1     -17.108  64.676 -11.748  0.00  0.00    +0.000 OA
ATOM     16  H16 UNL     1     -16.144  64.927 -11.561  0.00  0.00    +0.000 HD
ENDBRANCH   9  15
ENDBRANCH   1  12
BRANCH   4  17
ATOM     17  O3  UNL     1     -19.097  62.226 -20.968  0.00  0.00    +0.000 OA
ATOM     18  H12 UNL     1     -18.921  61.299 -21.275  0.00  0.00    +0.000 HD
ENDBRANCH   4  17
BRANCH   3  19
ATOM     19  O4  UNL     1     -17.380  60.528 -19.528  0.00  0.00    +0.000 OA
ATOM     20  H13 UNL     1     -17.285  60.637 -20.510  0.00  0.00    +0.000 HD
ENDBRANCH   3  19
BRANCH   2  21
ATOM     21  O5  UNL     1     -18.044  60.484 -16.958  0.00  0.00    +0.000 OA
ATOM     22  H14 UNL     1     -18.223  59.890 -17.731  0.00  0.00    +0.000 HD
ENDBRANCH   2  21
BRANCH   5  23
ATOM     23  C12 UNL     1     -19.345  64.742 -19.960  0.00  0.00    +0.000 C 
BRANCH  23  24
ATOM     24  O2  UNL     1     -18.033  64.726 -20.450  0.00  0.00    +0.000 OA
ATOM     25  H11 UNL     1     -17.666  65.634 -20.285  0.00  0.00    +0.000 HD
ENDBRANCH  23  24
ENDBRANCH   5  23
TORSDOF 8
ENDMDL
MODEL 4
REMARK VINA RESULT:      -4.0      3.178      6.010
REMARK  Name = .\Catechins.pdb
REMARK  8 active torsions:
REMARK  status: ('A' for Active; 'I' for Inactive)
REMARK    1  A    between atoms: C3_3  and  O7_19
REMARK    2  A    between atoms: C4_4  and  O6_18
REMARK    3  A    between atoms: C6_6  and  C7_7
REMARK    4  A    between atoms: C8_8  and  O5_17
REMARK    5  A    between atoms: C9_9  and  O4_16
REMARK    6  A    between atoms: C10_10  and  O3_15
REMARK    7  A    between atoms: C11_11  and  C12_13
REMARK    8  A    between atoms: C12_13  and  O2_14
REMARK                            x       y       z     vdW  Elec       q    Type
REMARK                         _______ _______ _______ _____ _____    ______ ____
ROOT
ATOM      1  C7  UNL     1     -18.663  63.624 -16.770  0.00  0.00    +0.000 C 
ATOM      2  C8  UNL     1     -17.787  64.182 -17.923  0.00  0.00    +0.000 C 
ATOM      3  C9  UNL     1     -18.658  64.601 -19.139  0.00  0.00    +0.000 C 
ATOM      4  C10 UNL     1     -19.925  63.733 -19.217  0.00  0.00    +0.000 C 
ATOM      5  C11 UNL     1     -20.726  63.815 -17.871  0.00  0.00    +0.000 C 
ATOM      6  O1  UNL     1     -19.928  64.260 -16.778  0.00  0.00    +0.000 OA
ENDROOT
BRANCH   1  12
ATOM      7  C1  UNL     1     -16.778  64.565 -15.357  0.00  0.00    +0.000 A 
ATOM      8  C2  UNL     1     -16.140  64.742 -14.126  0.00  0.00    +0.000 A 
ATOM      9  C3  UNL     1     -16.696  64.199 -12.959  0.00  0.00    +0.000 A 
ATOM     10  C4  UNL     1     -17.891  63.472 -13.030  0.00  0.00    +0.000 A 
ATOM     11  C5  UNL     1     -18.530  63.295 -14.266  0.00  0.00    +0.000 A 
ATOM     12  C6  UNL     1     -17.987  63.852 -15.436  0.00  0.00    +0.000 A 
BRANCH  10  13
ATOM     13  O6  UNL     1     -18.435  62.927 -11.869  0.00  0.00    +0.000 OA
ATOM     14  H15 UNL     1     -19.432  62.955 -11.687  0.00  0.00    +0.000 HD
ENDBRANCH  10  13
BRANCH   9  15
ATOM     15  O7  UNL     1     -16.064  64.375 -11.730  0.00  0.00    +0.000 OA
ATOM     16  H16 UNL     1     -15.417  65.138 -11.570  0.00  0.00    +0.000 HD
ENDBRANCH   9  15
ENDBRANCH   1  12
BRANCH   4  17
ATOM     17  O3  UNL     1     -20.716  64.125 -20.313  0.00  0.00    +0.000 OA
ATOM     18  H12 UNL     1     -21.128  64.997 -20.080  0.00  0.00    +0.000 HD
ENDBRANCH   4  17
BRANCH   3  19
ATOM     19  O4  UNL     1     -17.929  64.500 -20.335  0.00  0.00    +0.000 OA
ATOM     20  H13 UNL     1     -18.192  63.640 -20.756  0.00  0.00    +0.000 HD
ENDBRANCH   3  19
BRANCH   2  21
ATOM     21  O5  UNL     1     -16.800  63.246 -18.286  0.00  0.00    +0.000 OA
ATOM     22  H14 UNL     1     -16.774  62.547 -17.582  0.00  0.00    +0.000 HD
ENDBRANCH   2  21
BRANCH   5  23
ATOM     23  C12 UNL     1     -21.947  64.742 -17.966  0.00  0.00    +0.000 C 
BRANCH  23  24
ATOM     24  O2  UNL     1     -22.664  64.707 -16.762  0.00  0.00    +0.000 OA
ATOM     25  H11 UNL     1     -23.594  64.458 -17.003  0.00  0.00    +0.000 HD
ENDBRANCH  23  24
ENDBRANCH   5  23
TORSDOF 8
ENDMDL
MODEL 5
REMARK VINA RESULT:      -4.0      2.327      4.008
REMARK  Name = .\Catechins.pdb
REMARK  8 active torsions:
REMARK  status: ('A' for Active; 'I' for Inactive)
REMARK    1  A    between atoms: C3_3  and  O7_19
REMARK    2  A    between atoms: C4_4  and  O6_18
REMARK    3  A    between atoms: C6_6  and  C7_7
REMARK    4  A    between atoms: C8_8  and  O5_17
REMARK    5  A    between atoms: C9_9  and  O4_16
REMARK    6  A    between atoms: C10_10  and  O3_15
REMARK    7  A    between atoms: C11_11  and  C12_13
REMARK    8  A    between atoms: C12_13  and  O2_14
REMARK                            x       y       z     vdW  Elec       q    Type
REMARK                         _______ _______ _______ _____ _____    ______ ____
ROOT
ATOM      1  C7  UNL     1     -18.919  61.789 -17.244  0.00  0.00    +0.000 C 
ATOM      2  C8  UNL     1     -20.143  61.873 -16.295  0.00  0.00    +0.000 C 
ATOM      3  C9  UNL     1     -21.242  62.806 -16.875  0.00  0.00    +0.000 C 
ATOM      4  C10 UNL     1     -20.609  63.908 -17.741  0.00  0.00    +0.000 C 
ATOM      5  C11 UNL     1     -19.726  63.273 -18.872  0.00  0.00    +0.000 C 
ATOM      6  O1  UNL     1     -19.343  61.931 -18.587  0.00  0.00    +0.000 OA
ENDROOT
BRANCH   1  12
ATOM      7  C1  UNL     1     -17.801  60.030 -15.798  0.00  0.00    +0.000 A 
ATOM      8  C2  UNL     1     -17.114  58.822 -15.649  0.00  0.00    +0.000 A 
ATOM      9  C3  UNL     1     -16.812  58.039 -16.771  0.00  0.00    +0.000 A 
ATOM     10  C4  UNL     1     -17.196  58.473 -18.046  0.00  0.00    +0.000 A 
ATOM     11  C5  UNL     1     -17.886  59.685 -18.195  0.00  0.00    +0.000 A 
ATOM     12  C6  UNL     1     -18.207  60.465 -17.072  0.00  0.00    +0.000 A 
BRANCH  10  13
ATOM     13  O6  UNL     1     -16.887  57.695 -19.161  0.00  0.00    +0.000 OA
ATOM     14  H15 UNL     1     -16.723  58.113 -20.070  0.00  0.00    +0.000 HD
ENDBRANCH  10  13
BRANCH   9  15
ATOM     15  O7  UNL     1     -16.127  56.835 -16.627  0.00  0.00    +0.000 OA
ATOM     16  H16 UNL     1     -15.316  56.614 -17.193  0.00  0.00    +0.000 HD
ENDBRANCH   9  15
ENDBRANCH   1  12
BRANCH   4  17
ATOM     17  O3  UNL     1     -21.609  64.742 -18.274  0.00  0.00    +0.000 OA
ATOM     18  H12 UNL     1     -22.388  64.165 -18.489  0.00  0.00    +0.000 HD
ENDBRANCH   4  17
BRANCH   3  19
ATOM     19  O4  UNL     1     -22.006  63.380 -15.846  0.00  0.00    +0.000 OA
ATOM     20  H13 UNL     1     -21.813  64.353 -15.859  0.00  0.00    +0.000 HD
ENDBRANCH   3  19
BRANCH   2  21
ATOM     21  O5  UNL     1     -19.740  62.280 -15.009  0.00  0.00    +0.000 OA
ATOM     22  H14 UNL     1     -20.547  62.594 -14.525  0.00  0.00    +0.000 HD
ENDBRANCH   2  21
BRANCH   5  23
ATOM     23  C12 UNL     1     -20.424  63.279 -20.240  0.00  0.00    +0.000 C 
BRANCH  23  24
ATOM     24  O2  UNL     1     -19.528  62.862 -21.232  0.00  0.00    +0.000 OA
ATOM     25  H11 UNL     1     -18.637  62.811 -20.796  0.00  0.00    +0.000 HD
ENDBRANCH  23  24
ENDBRANCH   5  23
TORSDOF 8
ENDMDL
MODEL 6
REMARK VINA RESULT:      -4.0      3.362      5.622
REMARK  Name = .\Catechins.pdb
REMARK  8 active torsions:
REMARK  status: ('A' for Active; 'I' for Inactive)
REMARK    1  A    between atoms: C3_3  and  O7_19
REMARK    2  A    between atoms: C4_4  and  O6_18
REMARK    3  A    between atoms: C6_6  and  C7_7
REMARK    4  A    between atoms: C8_8  and  O5_17
REMARK    5  A    between atoms: C9_9  and  O4_16
REMARK    6  A    between atoms: C10_10  and  O3_15
REMARK    7  A    between atoms: C11_11  and  C12_13
REMARK    8  A    between atoms: C12_13  and  O2_14
REMARK                            x       y       z     vdW  Elec       q    Type
REMARK                         _______ _______ _______ _____ _____    ______ ____
ROOT
ATOM      1  C7  UNL     1     -19.416  62.224 -18.173  0.00  0.00    +0.000 C 
ATOM      2  C8  UNL     1     -18.074  62.897 -18.565  0.00  0.00    +0.000 C 
ATOM      3  C9  UNL     1     -18.294  64.025 -19.610  0.00  0.00    +0.000 C 
ATOM      4  C10 UNL     1     -19.515  63.711 -20.492  0.00  0.00    +0.000 C 
ATOM      5  C11 UNL     1     -20.786  63.484 -19.600  0.00  0.00    +0.000 C 
ATOM      6  O1  UNL     1     -20.467  63.170 -18.248  0.00  0.00    +0.000 OA
ENDROOT
BRANCH   1  12
ATOM      7  C1  UNL     1     -19.105  62.510 -15.672  0.00  0.00    +0.000 A 
ATOM      8  C2  UNL     1     -18.997  61.983 -14.382  0.00  0.00    +0.000 A 
ATOM      9  C3  UNL     1     -19.106  60.601 -14.174  0.00  0.00    +0.000 A 
ATOM     10  C4  UNL     1     -19.318  59.747 -15.264  0.00  0.00    +0.000 A 
ATOM     11  C5  UNL     1     -19.426  60.277 -16.558  0.00  0.00    +0.000 A 
ATOM     12  C6  UNL     1     -19.335  61.664 -16.771  0.00  0.00    +0.000 A 
BRANCH  10  13
ATOM     13  O6  UNL     1     -19.418  58.373 -15.053  0.00  0.00    +0.000 OA
ATOM     14  H15 UNL     1     -19.504  57.723 -15.826  0.00  0.00    +0.000 HD
ENDBRANCH  10  13
BRANCH   9  15
ATOM     15  O7  UNL     1     -19.001  60.072 -12.890  0.00  0.00    +0.000 OA
ATOM     16  H16 UNL     1     -18.164  60.197 -12.331  0.00  0.00    +0.000 HD
ENDBRANCH   9  15
ENDBRANCH   1  12
BRANCH   4  17
ATOM     17  O3  UNL     1     -19.717  64.741 -21.428  0.00  0.00    +0.000 OA
ATOM     18  H12 UNL     1     -20.533  65.234 -21.150  0.00  0.00    +0.000 HD
ENDBRANCH   4  17
BRANCH   3  19
ATOM     19  O4  UNL     1     -17.153  64.196 -20.411  0.00  0.00    +0.000 OA
ATOM     20  H13 UNL     1     -16.425  63.676 -19.981  0.00  0.00    +0.000 HD
ENDBRANCH   3  19
BRANCH   2  21
ATOM     21  O5  UNL     1     -17.158  61.931 -19.025  0.00  0.00    +0.000 OA
ATOM     22  H14 UNL     1     -17.399  61.064 -18.608  0.00  0.00    +0.000 HD
ENDBRANCH   2  21
BRANCH   5  23
ATOM     23  C12 UNL     1     -21.723  64.702 -19.588  0.00  0.00    +0.000 C 
BRANCH  23  24
ATOM     24  O2  UNL     1     -22.506  64.709 -20.750  0.00  0.00    +0.000 OA
ATOM     25  H11 UNL     1     -22.377  63.822 -21.176  0.00  0.00    +0.000 HD
ENDBRANCH  23  24
ENDBRANCH   5  23
TORSDOF 8
ENDMDL
MODEL 7
REMARK VINA RESULT:      -3.2      1.519      6.178
REMARK  Name = .\Catechins.pdb
REMARK  8 active torsions:
REMARK  status: ('A' for Active; 'I' for Inactive)
REMARK    1  A    between atoms: C3_3  and  O7_19
REMARK    2  A    between atoms: C4_4  and  O6_18
REMARK    3  A    between atoms: C6_6  and  C7_7
REMARK    4  A    between atoms: C8_8  and  O5_17
REMARK    5  A    between atoms: C9_9  and  O4_16
REMARK    6  A    between atoms: C10_10  and  O3_15
REMARK    7  A    between atoms: C11_11  and  C12_13
REMARK    8  A    between atoms: C12_13  and  O2_14
REMARK                            x       y       z     vdW  Elec       q    Type
REMARK                         _______ _______ _______ _____ _____    ______ ____
ROOT
ATOM      1  C7  UNL     1     -17.451  61.599 -16.658  0.00  0.00    +0.000 C 
ATOM      2  C8  UNL     1     -18.098  62.061 -17.991  0.00  0.00    +0.000 C 
ATOM      3  C9  UNL     1     -18.128  60.906 -19.030  0.00  0.00    +0.000 C 
ATOM      4  C10 UNL     1     -16.945  59.950 -18.806  0.00  0.00    +0.000 C 
ATOM      5  C11 UNL     1     -16.952  59.409 -17.334  0.00  0.00    +0.000 C 
ATOM      6  O1  UNL     1     -17.714  60.224 -16.448  0.00  0.00    +0.000 OA
ENDROOT
BRANCH   1  12
ATOM      7  C1  UNL     1     -19.372  62.688 -15.409  0.00  0.00    +0.000 A 
ATOM      8  C2  UNL     1     -19.867  63.461 -14.355  0.00  0.00    +0.000 A 
ATOM      9  C3  UNL     1     -18.995  63.971 -13.384  0.00  0.00    +0.000 A 
ATOM     10  C4  UNL     1     -17.622  63.709 -13.475  0.00  0.00    +0.000 A 
ATOM     11  C5  UNL     1     -17.126  62.933 -14.533  0.00  0.00    +0.000 A 
ATOM     12  C6  UNL     1     -17.998  62.404 -15.500  0.00  0.00    +0.000 A 
BRANCH  10  13
ATOM     13  O6  UNL     1     -16.756  64.225 -12.512  0.00  0.00    +0.000 OA
ATOM     14  H15 UNL     1     -16.684  65.222 -12.344  0.00  0.00    +0.000 HD
ENDBRANCH  10  13
BRANCH   9  15
ATOM     15  O7  UNL     1     -19.484  64.741 -12.332  0.00  0.00    +0.000 OA
ATOM     16  H16 UNL     1     -18.911  65.442 -11.875  0.00  0.00    +0.000 HD
ENDBRANCH   9  15
ENDBRANCH   1  12
BRANCH   4  17
ATOM     17  O3  UNL     1     -16.984  58.900 -19.743  0.00  0.00    +0.000 OA
ATOM     18  H12 UNL     1     -17.310  58.093 -19.264  0.00  0.00    +0.000 HD
ENDBRANCH   4  17
BRANCH   3  19
ATOM     19  O4  UNL     1     -18.099  61.412 -20.340  0.00  0.00    +0.000 OA
ATOM     20  H13 UNL     1     -17.381  60.921 -20.818  0.00  0.00    +0.000 HD
ENDBRANCH   3  19
BRANCH   2  21
ATOM     21  O5  UNL     1     -17.431  63.196 -18.491  0.00  0.00    +0.000 OA
ATOM     22  H14 UNL     1     -17.552  63.206 -19.476  0.00  0.00    +0.000 HD
ENDBRANCH   2  21
BRANCH   5  23
ATOM     23  C12 UNL     1     -17.496  57.976 -17.234  0.00  0.00    +0.000 C 
BRANCH  23  24
ATOM     24  O2  UNL     1     -16.528  57.140 -16.662  0.00  0.00    +0.000 OA
ATOM     25  H11 UNL     1     -15.919  57.733 -16.150  0.00  0.00    +0.000 HD
ENDBRANCH  23  24
ENDBRANCH   5  23
TORSDOF 8
ENDMDL
MODEL 8
REMARK VINA RESULT:      -2.9      2.613      6.163
REMARK  Name = .\Catechins.pdb
REMARK  8 active torsions:
REMARK  status: ('A' for Active; 'I' for Inactive)
REMARK    1  A    between atoms: C3_3  and  O7_19
REMARK    2  A    between atoms: C4_4  and  O6_18
REMARK    3  A    between atoms: C6_6  and  C7_7
REMARK    4  A    between atoms: C8_8  and  O5_17
REMARK    5  A    between atoms: C9_9  and  O4_16
REMARK    6  A    between atoms: C10_10  and  O3_15
REMARK    7  A    between atoms: C11_11  and  C12_13
REMARK    8  A    between atoms: C12_13  and  O2_14
REMARK                            x       y       z     vdW  Elec       q    Type
REMARK                         _______ _______ _______ _____ _____    ______ ____
ROOT
ATOM      1  C7  UNL     1     -19.156  62.664 -17.039  0.00  0.00    +0.000 C 
ATOM      2  C8  UNL     1     -17.882  62.127 -17.742  0.00  0.00    +0.000 C 
ATOM      3  C9  UNL     1     -17.954  62.342 -19.279  0.00  0.00    +0.000 C 
ATOM      4  C10 UNL     1     -19.414  62.303 -19.759  0.00  0.00    +0.000 C 
ATOM      5  C11 UNL     1     -20.272  63.362 -18.981  0.00  0.00    +0.000 C 
ATOM      6  O1  UNL     1     -19.670  63.771 -17.757  0.00  0.00    +0.000 OA
ENDROOT
BRANCH   1  12
ATOM      7  C1  UNL     1     -18.366  64.373 -15.340  0.00  0.00    +0.000 A 
ATOM      8  C2  UNL     1     -18.044  64.740 -14.030  0.00  0.00    +0.000 A 
ATOM      9  C3  UNL     1     -18.182  63.818 -12.984  0.00  0.00    +0.000 A 
ATOM     10  C4  UNL     1     -18.638  62.522 -13.255  0.00  0.00    +0.000 A 
ATOM     11  C5  UNL     1     -18.961  62.153 -14.569  0.00  0.00    +0.000 A 
ATOM     12  C6  UNL     1     -18.842  63.080 -15.619  0.00  0.00    +0.000 A 
BRANCH  10  13
ATOM     13  O6  UNL     1     -18.766  61.604 -12.213  0.00  0.00    +0.000 OA
ATOM     14  H15 UNL     1     -18.239  61.702 -11.354  0.00  0.00    +0.000 HD
ENDBRANCH  10  13
BRANCH   9  15
ATOM     15  O7  UNL     1     -17.863  64.181 -11.678  0.00  0.00    +0.000 OA
ATOM     16  H16 UNL     1     -17.006  64.676 -11.459  0.00  0.00    +0.000 HD
ENDBRANCH   9  15
ENDBRANCH   1  12
BRANCH   4  17
ATOM     17  O3  UNL     1     -19.474  62.510 -21.150  0.00  0.00    +0.000 OA
ATOM     18  H12 UNL     1     -18.544  62.472 -21.492  0.00  0.00    +0.000 HD
ENDBRANCH   4  17
BRANCH   3  19
ATOM     19  O4  UNL     1     -17.198  61.371 -19.955  0.00  0.00    +0.000 OA
ATOM     20  H13 UNL     1     -17.748  60.545 -19.974  0.00  0.00    +0.000 HD
ENDBRANCH   3  19
BRANCH   2  21
ATOM     21  O5  UNL     1     -17.674  60.774 -17.413  0.00  0.00    +0.000 OA
ATOM     22  H14 UNL     1     -16.722  60.562 -17.595  0.00  0.00    +0.000 HD
ENDBRANCH   2  21
BRANCH   5  23
ATOM     23  C12 UNL     1     -20.545  64.625 -19.812  0.00  0.00    +0.000 C 
BRANCH  23  24
ATOM     24  O2  UNL     1     -21.510  64.350 -20.790  0.00  0.00    +0.000 OA
ATOM     25  H11 UNL     1     -21.270  63.467 -21.175  0.00  0.00    +0.000 HD
ENDBRANCH  23  24
ENDBRANCH   5  23
TORSDOF 8
ENDMDL
MODEL 9
REMARK VINA RESULT:      -2.8      2.800      4.077
REMARK  Name = .\Catechins.pdb
REMARK  8 active torsions:
REMARK  status: ('A' for Active; 'I' for Inactive)
REMARK    1  A    between atoms: C3_3  and  O7_19
REMARK    2  A    between atoms: C4_4  and  O6_18
REMARK    3  A    between atoms: C6_6  and  C7_7
REMARK    4  A    between atoms: C8_8  and  O5_17
REMARK    5  A    between atoms: C9_9  and  O4_16
REMARK    6  A    between atoms: C10_10  and  O3_15
REMARK    7  A    between atoms: C11_11  and  C12_13
REMARK    8  A    between atoms: C12_13  and  O2_14
REMARK                            x       y       z     vdW  Elec       q    Type
REMARK                         _______ _______ _______ _____ _____    ______ ____
ROOT
ATOM      1  C7  UNL     1     -19.120  63.143 -16.476  0.00  0.00    +0.000 C 
ATOM      2  C8  UNL     1     -19.458  61.683 -16.074  0.00  0.00    +0.000 C 
ATOM      3  C9  UNL     1     -19.411  61.499 -14.532  0.00  0.00    +0.000 C 
ATOM      4  C10 UNL     1     -18.393  62.466 -13.906  0.00  0.00    +0.000 C 
ATOM      5  C11 UNL     1     -18.728  63.945 -14.307  0.00  0.00    +0.000 C 
ATOM      6  O1  UNL     1     -19.555  64.032 -15.463  0.00  0.00    +0.000 OA
ENDROOT
BRANCH   1  12
ATOM      7  C1  UNL     1     -20.930  64.320 -17.809  0.00  0.00    +0.000 A 
ATOM      8  C2  UNL     1     -21.563  64.617 -19.018  0.00  0.00    +0.000 A 
ATOM      9  C3  UNL     1     -21.072  64.088 -20.220  0.00  0.00    +0.000 A 
ATOM     10  C4  UNL     1     -19.946  63.255 -20.206  0.00  0.00    +0.000 A 
ATOM     11  C5  UNL     1     -19.311  62.958 -18.991  0.00  0.00    +0.000 A 
ATOM     12  C6  UNL     1     -19.788  63.499 -17.785  0.00  0.00    +0.000 A 
BRANCH  10  13
ATOM     13  O6  UNL     1     -19.466  62.725 -21.402  0.00  0.00    +0.000 OA
ATOM     14  H15 UNL     1     -19.324  63.306 -22.220  0.00  0.00    +0.000 HD
ENDBRANCH  10  13
BRANCH   9  15
ATOM     15  O7  UNL     1     -21.700  64.383 -21.428  0.00  0.00    +0.000 OA
ATOM     16  H16 UNL     1     -22.388  63.759 -21.835  0.00  0.00    +0.000 HD
ENDBRANCH   9  15
ENDBRANCH   1  12
BRANCH   4  17
ATOM     17  O3  UNL     1     -18.364  62.303 -12.508  0.00  0.00    +0.000 OA
ATOM     18  H12 UNL     1     -17.859  61.469 -12.321  0.00  0.00    +0.000 HD
ENDBRANCH   4  17
BRANCH   3  19
ATOM     19  O4  UNL     1     -19.089  60.174 -14.196  0.00  0.00    +0.000 OA
ATOM     20  H13 UNL     1     -19.286  59.622 -14.997  0.00  0.00    +0.000 HD
ENDBRANCH   3  19
BRANCH   2  21
ATOM     21  O5  UNL     1     -18.599  60.783 -16.734  0.00  0.00    +0.000 OA
ATOM     22  H14 UNL     1     -19.024  60.538 -17.596  0.00  0.00    +0.000 HD
ENDBRANCH   2  21
BRANCH   5  23
ATOM     23  C12 UNL     1     -19.423  64.719 -13.176  0.00  0.00    +0.000 C 
BRANCH  23  24
ATOM     24  O2  UNL     1     -18.721  64.539 -11.977  0.00  0.00    +0.000 OA
ATOM     25  H11 UNL     1     -19.287  64.935 -11.264  0.00  0.00    +0.000 HD
ENDBRANCH  23  24
ENDBRANCH   5  23
TORSDOF 8
ENDMDL
