MODEL 1
REMARK VINA RESULT:      -6.3      0.000      0.000
REMARK  Name = .\Catechins.pdb
REMARK  8 active torsions:
REMARK  status: ('A' for Active; 'I' for Inactive)
REMARK    1  A    between atoms: C3_3  and  O7_19
REMARK    2  A    between atoms: C4_4  and  O6_18
REMARK    3  A    between atoms: C6_6  and  C7_7
REMARK    4  A    between atoms: C8_8  and  O5_17
REMARK    5  A    between atoms: C9_9  and  O4_16
REMARK    6  A    between atoms: C10_10  and  O3_15
REMARK    7  A    between atoms: C11_11  and  C12_13
REMARK    8  A    between atoms: C12_13  and  O2_14
REMARK                            x       y       z     vdW  Elec       q    Type
REMARK                         _______ _______ _______ _____ _____    ______ ____
ROOT
ATOM      1  C7  UNL     1       0.449  79.495  82.514  0.00  0.00    +0.000 C 
ATOM      2  C8  UNL     1       0.210  80.572  83.605  0.00  0.00    +0.000 C 
ATOM      3  C9  UNL     1       0.357  82.005  83.023  0.00  0.00    +0.000 C 
ATOM      4  C10 UNL     1       1.362  82.011  81.858  0.00  0.00    +0.000 C 
ATOM      5  C11 UNL     1       0.929  80.977  80.760  0.00  0.00    +0.000 C 
ATOM      6  O1  UNL     1       0.031  79.988  81.254  0.00  0.00    +0.000 OA
ENDROOT
BRANCH   1  12
ATOM      7  C1  UNL     1      -1.667  78.096  82.490  0.00  0.00    +0.000 A 
ATOM      8  C2  UNL     1      -2.375  76.940  82.828  0.00  0.00    +0.000 A 
ATOM      9  C3  UNL     1      -1.744  75.908  83.535  0.00  0.00    +0.000 A 
ATOM     10  C4  UNL     1      -0.400  76.039  83.908  0.00  0.00    +0.000 A 
ATOM     11  C5  UNL     1       0.310  77.200  83.568  0.00  0.00    +0.000 A 
ATOM     12  C6  UNL     1      -0.313  78.231  82.844  0.00  0.00    +0.000 A 
BRANCH  10  13
ATOM     13  O6  UNL     1       0.221  75.013  84.618  0.00  0.00    +0.000 OA
ATOM     14  H15 UNL     1       0.207  74.056  84.287  0.00  0.00    +0.000 HD
ENDBRANCH  10  13
BRANCH   9  15
ATOM     15  O7  UNL     1      -2.446  74.753  83.872  0.00  0.00    +0.000 OA
ATOM     16  H16 UNL     1      -2.003  73.841  83.867  0.00  0.00    +0.000 HD
ENDBRANCH   9  15
ENDBRANCH   1  12
BRANCH   4  17
ATOM     17  O3  UNL     1       1.482  83.309  81.327  0.00  0.00    +0.000 OA
ATOM     18  H12 UNL     1       0.752  83.423  80.663  0.00  0.00    +0.000 HD
ENDBRANCH   4  17
BRANCH   3  19
ATOM     19  O4  UNL     1       0.766  82.909  84.016  0.00  0.00    +0.000 OA
ATOM     20  H13 UNL     1       1.748  83.014  83.919  0.00  0.00    +0.000 HD
ENDBRANCH   3  19
BRANCH   2  21
ATOM     21  O5  UNL     1       1.072  80.362  84.698  0.00  0.00    +0.000 OA
ATOM     22  H14 UNL     1       1.087  79.389  84.888  0.00  0.00    +0.000 HD
ENDBRANCH   2  21
BRANCH   5  23
ATOM     23  C12 UNL     1       0.265  81.647  79.548  0.00  0.00    +0.000 C 
BRANCH  23  24
ATOM     24  O2  UNL     1      -0.989  82.154  79.914  0.00  0.00    +0.000 OA
ATOM     25  H11 UNL     1      -1.102  81.942  80.877  0.00  0.00    +0.000 HD
ENDBRANCH  23  24
ENDBRANCH   5  23
TORSDOF 8
ENDMDL
MODEL 2
REMARK VINA RESULT:      -6.0      1.193      1.817
REMARK  Name = .\Catechins.pdb
REMARK  8 active torsions:
REMARK  status: ('A' for Active; 'I' for Inactive)
REMARK    1  A    between atoms: C3_3  and  O7_19
REMARK    2  A    between atoms: C4_4  and  O6_18
REMARK    3  A    between atoms: C6_6  and  C7_7
REMARK    4  A    between atoms: C8_8  and  O5_17
REMARK    5  A    between atoms: C9_9  and  O4_16
REMARK    6  A    between atoms: C10_10  and  O3_15
REMARK    7  A    between atoms: C11_11  and  C12_13
REMARK    8  A    between atoms: C12_13  and  O2_14
REMARK                            x       y       z     vdW  Elec       q    Type
REMARK                         _______ _______ _______ _____ _____    ______ ____
ROOT
ATOM      1  C7  UNL     1       0.464  80.197  81.794  0.00  0.00    +0.000 C 
ATOM      2  C8  UNL     1       0.189  81.320  82.829  0.00  0.00    +0.000 C 
ATOM      3  C9  UNL     1       0.068  82.706  82.137  0.00  0.00    +0.000 C 
ATOM      4  C10 UNL     1       0.932  82.750  80.866  0.00  0.00    +0.000 C 
ATOM      5  C11 UNL     1       0.539  81.578  79.899  0.00  0.00    +0.000 C 
ATOM      6  O1  UNL     1      -0.151  80.522  80.560  0.00  0.00    +0.000 OA
ENDROOT
BRANCH   1  12
ATOM      7  C1  UNL     1       0.790  77.777  82.478  0.00  0.00    +0.000 A 
ATOM      8  C2  UNL     1       0.285  76.547  82.909  0.00  0.00    +0.000 A 
ATOM      9  C3  UNL     1      -1.086  76.393  83.152  0.00  0.00    +0.000 A 
ATOM     10  C4  UNL     1      -1.954  77.475  82.956  0.00  0.00    +0.000 A 
ATOM     11  C5  UNL     1      -1.447  78.709  82.524  0.00  0.00    +0.000 A 
ATOM     12  C6  UNL     1      -0.070  78.874  82.296  0.00  0.00    +0.000 A 
BRANCH  10  13
ATOM     13  O6  UNL     1      -3.318  77.315  83.190  0.00  0.00    +0.000 OA
ATOM     14  H15 UNL     1      -3.679  76.518  83.702  0.00  0.00    +0.000 HD
ENDBRANCH  10  13
BRANCH   9  15
ATOM     15  O7  UNL     1      -1.593  75.168  83.582  0.00  0.00    +0.000 OA
ATOM     16  H16 UNL     1      -2.553  74.898  83.403  0.00  0.00    +0.000 HD
ENDBRANCH   9  15
ENDBRANCH   1  12
BRANCH   4  17
ATOM     17  O3  UNL     1       0.809  84.002  80.237  0.00  0.00    +0.000 OA
ATOM     18  H12 UNL     1       0.035  84.464  80.654  0.00  0.00    +0.000 HD
ENDBRANCH   4  17
BRANCH   3  19
ATOM     19  O4  UNL     1       0.445  83.737  83.013  0.00  0.00    +0.000 OA
ATOM     20  H13 UNL     1       0.165  83.454  83.922  0.00  0.00    +0.000 HD
ENDBRANCH   3  19
BRANCH   2  21
ATOM     21  O5  UNL     1       1.183  81.320  83.827  0.00  0.00    +0.000 OA
ATOM     22  H14 UNL     1       1.549  80.400  83.887  0.00  0.00    +0.000 HD
ENDBRANCH   2  21
BRANCH   5  23
ATOM     23  C12 UNL     1      -0.338  82.049  78.729  0.00  0.00    +0.000 C 
BRANCH  23  24
ATOM     24  O2  UNL     1      -1.658  82.224  79.167  0.00  0.00    +0.000 OA
ATOM     25  H11 UNL     1      -2.166  81.439  78.833  0.00  0.00    +0.000 HD
ENDBRANCH  23  24
ENDBRANCH   5  23
TORSDOF 8
ENDMDL
MODEL 3
REMARK VINA RESULT:      -5.9      2.237      6.195
REMARK  Name = .\Catechins.pdb
REMARK  8 active torsions:
REMARK  status: ('A' for Active; 'I' for Inactive)
REMARK    1  A    between atoms: C3_3  and  O7_19
REMARK    2  A    between atoms: C4_4  and  O6_18
REMARK    3  A    between atoms: C6_6  and  C7_7
REMARK    4  A    between atoms: C8_8  and  O5_17
REMARK    5  A    between atoms: C9_9  and  O4_16
REMARK    6  A    between atoms: C10_10  and  O3_15
REMARK    7  A    between atoms: C11_11  and  C12_13
REMARK    8  A    between atoms: C12_13  and  O2_14
REMARK                            x       y       z     vdW  Elec       q    Type
REMARK                         _______ _______ _______ _____ _____    ______ ____
ROOT
ATOM      1  C7  UNL     1       0.058  80.114  81.947  0.00  0.00    +0.000 C 
ATOM      2  C8  UNL     1       0.447  78.679  81.503  0.00  0.00    +0.000 C 
ATOM      3  C9  UNL     1      -0.805  77.765  81.395  0.00  0.00    +0.000 C 
ATOM      4  C10 UNL     1      -1.885  78.211  82.395  0.00  0.00    +0.000 C 
ATOM      5  C11 UNL     1      -2.244  79.722  82.170  0.00  0.00    +0.000 C 
ATOM      6  O1  UNL     1      -1.233  80.433  81.461  0.00  0.00    +0.000 OA
ENDROOT
BRANCH   1  12
ATOM      7  C1  UNL     1       1.515  81.052  80.094  0.00  0.00    +0.000 A 
ATOM      8  C2  UNL     1       2.467  81.961  79.626  0.00  0.00    +0.000 A 
ATOM      9  C3  UNL     1       2.987  82.941  80.482  0.00  0.00    +0.000 A 
ATOM     10  C4  UNL     1       2.555  83.004  81.812  0.00  0.00    +0.000 A 
ATOM     11  C5  UNL     1       1.599  82.092  82.282  0.00  0.00    +0.000 A 
ATOM     12  C6  UNL     1       1.061  81.118  81.423  0.00  0.00    +0.000 A 
BRANCH  10  13
ATOM     13  O6  UNL     1       3.081  83.975  82.663  0.00  0.00    +0.000 OA
ATOM     14  H15 UNL     1       2.504  84.447  83.349  0.00  0.00    +0.000 HD
ENDBRANCH  10  13
BRANCH   9  15
ATOM     15  O7  UNL     1       3.936  83.850  80.018  0.00  0.00    +0.000 OA
ATOM     16  H16 UNL     1       3.731  84.492  79.261  0.00  0.00    +0.000 HD
ENDBRANCH   9  15
ENDBRANCH   1  12
BRANCH   4  17
ATOM     17  O3  UNL     1      -3.021  77.388  82.284  0.00  0.00    +0.000 OA
ATOM     18  H12 UNL     1      -3.187  77.247  81.315  0.00  0.00    +0.000 HD
ENDBRANCH   4  17
BRANCH   3  19
ATOM     19  O4  UNL     1      -0.465  76.421  81.621  0.00  0.00    +0.000 OA
ATOM     20  H13 UNL     1       0.452  76.297  81.263  0.00  0.00    +0.000 HD
ENDBRANCH   3  19
BRANCH   2  21
ATOM     21  O5  UNL     1       1.412  78.140  82.377  0.00  0.00    +0.000 OA
ATOM     22  H14 UNL     1       0.963  77.453  82.934  0.00  0.00    +0.000 HD
ENDBRANCH   2  21
BRANCH   5  23
ATOM     23  C12 UNL     1      -3.566  79.907  81.409  0.00  0.00    +0.000 C 
BRANCH  23  24
ATOM     24  O2  UNL     1      -4.634  79.936  82.315  0.00  0.00    +0.000 OA
ATOM     25  H11 UNL     1      -4.681  79.030  82.716  0.00  0.00    +0.000 HD
ENDBRANCH  23  24
ENDBRANCH   5  23
TORSDOF 8
ENDMDL
MODEL 4
REMARK VINA RESULT:      -5.9      1.670      3.015
REMARK  Name = .\Catechins.pdb
REMARK  8 active torsions:
REMARK  status: ('A' for Active; 'I' for Inactive)
REMARK    1  A    between atoms: C3_3  and  O7_19
REMARK    2  A    between atoms: C4_4  and  O6_18
REMARK    3  A    between atoms: C6_6  and  C7_7
REMARK    4  A    between atoms: C8_8  and  O5_17
REMARK    5  A    between atoms: C9_9  and  O4_16
REMARK    6  A    between atoms: C10_10  and  O3_15
REMARK    7  A    between atoms: C11_11  and  C12_13
REMARK    8  A    between atoms: C12_13  and  O2_14
REMARK                            x       y       z     vdW  Elec       q    Type
REMARK                         _______ _______ _______ _____ _____    ______ ____
ROOT
ATOM      1  C7  UNL     1       0.036  80.990  81.695  0.00  0.00    +0.000 C 
ATOM      2  C8  UNL     1      -0.384  81.306  80.235  0.00  0.00    +0.000 C 
ATOM      3  C9  UNL     1       0.412  82.514  79.670  0.00  0.00    +0.000 C 
ATOM      4  C10 UNL     1       0.792  83.484  80.801  0.00  0.00    +0.000 C 
ATOM      5  C11 UNL     1       1.593  82.730  81.920  0.00  0.00    +0.000 C 
ATOM      6  O1  UNL     1       1.400  81.319  81.884  0.00  0.00    +0.000 OA
ENDROOT
BRANCH   1  12
ATOM      7  C1  UNL     1      -0.950  78.718  81.143  0.00  0.00    +0.000 A 
ATOM      8  C2  UNL     1      -1.176  77.374  81.449  0.00  0.00    +0.000 A 
ATOM      9  C3  UNL     1      -0.647  76.819  82.622  0.00  0.00    +0.000 A 
ATOM     10  C4  UNL     1       0.105  77.618  83.493  0.00  0.00    +0.000 A 
ATOM     11  C5  UNL     1       0.332  78.967  83.185  0.00  0.00    +0.000 A 
ATOM     12  C6  UNL     1      -0.181  79.524  82.001  0.00  0.00    +0.000 A 
BRANCH  10  13
ATOM     13  O6  UNL     1       0.623  77.064  84.663  0.00  0.00    +0.000 OA
ATOM     14  H15 UNL     1       0.266  77.324  85.575  0.00  0.00    +0.000 HD
ENDBRANCH  10  13
BRANCH   9  15
ATOM     15  O7  UNL     1      -0.869  75.478  82.930  0.00  0.00    +0.000 OA
ATOM     16  H16 UNL     1      -1.769  75.040  82.772  0.00  0.00    +0.000 HD
ENDBRANCH   9  15
ENDBRANCH   1  12
BRANCH   4  17
ATOM     17  O3  UNL     1       1.524  84.570  80.285  0.00  0.00    +0.000 OA
ATOM     18  H12 UNL     1       0.883  85.148  79.795  0.00  0.00    +0.000 HD
ENDBRANCH   4  17
BRANCH   3  19
ATOM     19  O4  UNL     1      -0.331  83.187  78.686  0.00  0.00    +0.000 OA
ATOM     20  H13 UNL     1      -0.826  82.492  78.180  0.00  0.00    +0.000 HD
ENDBRANCH   3  19
BRANCH   2  21
ATOM     21  O5  UNL     1      -1.775  81.516  80.160  0.00  0.00    +0.000 OA
ATOM     22  H14 UNL     1      -2.222  80.702  80.505  0.00  0.00    +0.000 HD
ENDBRANCH   2  21
BRANCH   5  23
ATOM     23  C12 UNL     1       3.104  82.996  81.846  0.00  0.00    +0.000 C 
BRANCH  23  24
ATOM     24  O2  UNL     1       3.396  84.235  82.432  0.00  0.00    +0.000 OA
ATOM     25  H11 UNL     1       2.695  84.387  83.119  0.00  0.00    +0.000 HD
ENDBRANCH  23  24
ENDBRANCH   5  23
TORSDOF 8
ENDMDL
MODEL 5
REMARK VINA RESULT:      -5.9      1.422      6.468
REMARK  Name = .\Catechins.pdb
REMARK  8 active torsions:
REMARK  status: ('A' for Active; 'I' for Inactive)
REMARK    1  A    between atoms: C3_3  and  O7_19
REMARK    2  A    between atoms: C4_4  and  O6_18
REMARK    3  A    between atoms: C6_6  and  C7_7
REMARK    4  A    between atoms: C8_8  and  O5_17
REMARK    5  A    between atoms: C9_9  and  O4_16
REMARK    6  A    between atoms: C10_10  and  O3_15
REMARK    7  A    between atoms: C11_11  and  C12_13
REMARK    8  A    between atoms: C12_13  and  O2_14
REMARK                            x       y       z     vdW  Elec       q    Type
REMARK                         _______ _______ _______ _____ _____    ______ ____
ROOT
ATOM      1  C7  UNL     1      -0.275  78.303  82.722  0.00  0.00    +0.000 C 
ATOM      2  C8  UNL     1      -1.808  78.117  82.578  0.00  0.00    +0.000 C 
ATOM      3  C9  UNL     1      -2.279  76.791  83.235  0.00  0.00    +0.000 C 
ATOM      4  C10 UNL     1      -1.164  75.733  83.169  0.00  0.00    +0.000 C 
ATOM      5  C11 UNL     1       0.147  76.281  83.835  0.00  0.00    +0.000 C 
ATOM      6  O1  UNL     1       0.170  77.703  83.925  0.00  0.00    +0.000 OA
ENDROOT
BRANCH   1  12
ATOM      7  C1  UNL     1       0.540  80.397  83.899  0.00  0.00    +0.000 A 
ATOM      8  C2  UNL     1       0.835  81.763  83.905  0.00  0.00    +0.000 A 
ATOM      9  C3  UNL     1       0.664  82.527  82.742  0.00  0.00    +0.000 A 
ATOM     10  C4  UNL     1       0.190  81.918  81.573  0.00  0.00    +0.000 A 
ATOM     11  C5  UNL     1      -0.105  80.547  81.568  0.00  0.00    +0.000 A 
ATOM     12  C6  UNL     1       0.081  79.773  82.725  0.00  0.00    +0.000 A 
BRANCH  10  13
ATOM     13  O6  UNL     1       0.014  82.683  80.421  0.00  0.00    +0.000 OA
ATOM     14  H15 UNL     1      -0.827  83.228  80.270  0.00  0.00    +0.000 HD
ENDBRANCH  10  13
BRANCH   9  15
ATOM     15  O7  UNL     1       0.957  83.889  82.744  0.00  0.00    +0.000 OA
ATOM     16  H16 UNL     1       1.816  84.246  83.147  0.00  0.00    +0.000 HD
ENDBRANCH   9  15
ENDBRANCH   1  12
BRANCH   4  17
ATOM     17  O3  UNL     1      -1.591  74.538  83.777  0.00  0.00    +0.000 OA
ATOM     18  H12 UNL     1      -2.515  74.363  83.461  0.00  0.00    +0.000 HD
ENDBRANCH   4  17
BRANCH   3  19
ATOM     19  O4  UNL     1      -3.439  76.307  82.610  0.00  0.00    +0.000 OA
ATOM     20  H13 UNL     1      -3.565  76.847  81.787  0.00  0.00    +0.000 HD
ENDBRANCH   3  19
BRANCH   2  21
ATOM     21  O5  UNL     1      -2.185  78.191  81.223  0.00  0.00    +0.000 OA
ATOM     22  H14 UNL     1      -2.098  79.136  80.937  0.00  0.00    +0.000 HD
ENDBRANCH   2  21
BRANCH   5  23
ATOM     23  C12 UNL     1       0.370  75.720  85.247  0.00  0.00    +0.000 C 
BRANCH  23  24
ATOM     24  O2  UNL     1      -0.803  75.855  86.002  0.00  0.00    +0.000 OA
ATOM     25  H11 UNL     1      -0.604  76.528  86.704  0.00  0.00    +0.000 HD
ENDBRANCH  23  24
ENDBRANCH   5  23
TORSDOF 8
ENDMDL
MODEL 6
REMARK VINA RESULT:      -5.8      2.171      6.614
REMARK  Name = .\Catechins.pdb
REMARK  8 active torsions:
REMARK  status: ('A' for Active; 'I' for Inactive)
REMARK    1  A    between atoms: C3_3  and  O7_19
REMARK    2  A    between atoms: C4_4  and  O6_18
REMARK    3  A    between atoms: C6_6  and  C7_7
REMARK    4  A    between atoms: C8_8  and  O5_17
REMARK    5  A    between atoms: C9_9  and  O4_16
REMARK    6  A    between atoms: C10_10  and  O3_15
REMARK    7  A    between atoms: C11_11  and  C12_13
REMARK    8  A    between atoms: C12_13  and  O2_14
REMARK                            x       y       z     vdW  Elec       q    Type
REMARK                         _______ _______ _______ _____ _____    ______ ____
ROOT
ATOM      1  C7  UNL     1       0.739  80.675  81.182  0.00  0.00    +0.000 C 
ATOM      2  C8  UNL     1      -0.699  80.843  80.623  0.00  0.00    +0.000 C 
ATOM      3  C9  UNL     1      -1.588  79.621  80.983  0.00  0.00    +0.000 C 
ATOM      4  C10 UNL     1      -0.733  78.347  81.091  0.00  0.00    +0.000 C 
ATOM      5  C11 UNL     1       0.423  78.554  82.132  0.00  0.00    +0.000 C 
ATOM      6  O1  UNL     1       0.702  79.928  82.384  0.00  0.00    +0.000 OA
ENDROOT
BRANCH   1  12
ATOM      7  C1  UNL     1       0.566  83.137  81.770  0.00  0.00    +0.000 A 
ATOM      8  C2  UNL     1       1.146  84.391  81.976  0.00  0.00    +0.000 A 
ATOM      9  C3  UNL     1       2.532  84.557  81.845  0.00  0.00    +0.000 A 
ATOM     10  C4  UNL     1       3.335  83.462  81.501  0.00  0.00    +0.000 A 
ATOM     11  C5  UNL     1       2.751  82.204  81.295  0.00  0.00    +0.000 A 
ATOM     12  C6  UNL     1       1.365  82.027  81.442  0.00  0.00    +0.000 A 
BRANCH  10  13
ATOM     13  O6  UNL     1       4.711  83.633  81.364  0.00  0.00    +0.000 OA
ATOM     14  H15 UNL     1       5.369  83.127  81.946  0.00  0.00    +0.000 HD
ENDBRANCH  10  13
BRANCH   9  15
ATOM     15  O7  UNL     1       3.114  85.806  82.050  0.00  0.00    +0.000 OA
ATOM     16  H16 UNL     1       3.561  86.045  82.928  0.00  0.00    +0.000 HD
ENDBRANCH   9  15
ENDBRANCH   1  12
BRANCH   4  17
ATOM     17  O3  UNL     1      -1.541  77.246  81.428  0.00  0.00    +0.000 OA
ATOM     18  H12 UNL     1      -1.054  76.727  82.121  0.00  0.00    +0.000 HD
ENDBRANCH   4  17
BRANCH   3  19
ATOM     19  O4  UNL     1      -2.601  79.441  80.027  0.00  0.00    +0.000 OA
ATOM     20  H13 UNL     1      -2.293  78.720  79.419  0.00  0.00    +0.000 HD
ENDBRANCH   3  19
BRANCH   2  21
ATOM     21  O5  UNL     1      -0.662  81.071  79.234  0.00  0.00    +0.000 OA
ATOM     22  H14 UNL     1      -0.695  82.051  79.089  0.00  0.00    +0.000 HD
ENDBRANCH   2  21
BRANCH   5  23
ATOM     23  C12 UNL     1       0.128  77.883  83.482  0.00  0.00    +0.000 C 
BRANCH  23  24
ATOM     24  O2  UNL     1       1.199  78.093  84.360  0.00  0.00    +0.000 OA
ATOM     25  H11 UNL     1       1.985  78.306  83.792  0.00  0.00    +0.000 HD
ENDBRANCH  23  24
ENDBRANCH   5  23
TORSDOF 8
ENDMDL
MODEL 7
REMARK VINA RESULT:      -5.8      1.737      2.049
REMARK  Name = .\Catechins.pdb
REMARK  8 active torsions:
REMARK  status: ('A' for Active; 'I' for Inactive)
REMARK    1  A    between atoms: C3_3  and  O7_19
REMARK    2  A    between atoms: C4_4  and  O6_18
REMARK    3  A    between atoms: C6_6  and  C7_7
REMARK    4  A    between atoms: C8_8  and  O5_17
REMARK    5  A    between atoms: C9_9  and  O4_16
REMARK    6  A    between atoms: C10_10  and  O3_15
REMARK    7  A    between atoms: C11_11  and  C12_13
REMARK    8  A    between atoms: C12_13  and  O2_14
REMARK                            x       y       z     vdW  Elec       q    Type
REMARK                         _______ _______ _______ _____ _____    ______ ____
ROOT
ATOM      1  C7  UNL     1       0.980  80.382  81.404  0.00  0.00    +0.000 C 
ATOM      2  C8  UNL     1       0.771  81.634  82.297  0.00  0.00    +0.000 C 
ATOM      3  C9  UNL     1       1.251  82.924  81.577  0.00  0.00    +0.000 C 
ATOM      4  C10 UNL     1       2.404  82.604  80.611  0.00  0.00    +0.000 C 
ATOM      5  C11 UNL     1       1.968  81.495  79.591  0.00  0.00    +0.000 C 
ATOM      6  O1  UNL     1       0.848  80.738  80.040  0.00  0.00    +0.000 OA
ENDROOT
BRANCH   1  12
ATOM      7  C1  UNL     1      -1.377  79.645  81.981  0.00  0.00    +0.000 A 
ATOM      8  C2  UNL     1      -2.300  78.656  82.335  0.00  0.00    +0.000 A 
ATOM      9  C3  UNL     1      -1.888  77.324  82.475  0.00  0.00    +0.000 A 
ATOM     10  C4  UNL     1      -0.545  76.985  82.266  0.00  0.00    +0.000 A 
ATOM     11  C5  UNL     1       0.380  77.977  81.910  0.00  0.00    +0.000 A 
ATOM     12  C6  UNL     1      -0.031  79.312  81.751  0.00  0.00    +0.000 A 
BRANCH  10  13
ATOM     13  O6  UNL     1      -0.137  75.661  82.414  0.00  0.00    +0.000 OA
ATOM     14  H15 UNL     1       0.187  75.303  83.305  0.00  0.00    +0.000 HD
ENDBRANCH  10  13
BRANCH   9  15
ATOM     15  O7  UNL     1      -2.804  76.336  82.827  0.00  0.00    +0.000 OA
ATOM     16  H16 UNL     1      -3.753  76.341  82.470  0.00  0.00    +0.000 HD
ENDBRANCH   9  15
ENDBRANCH   1  12
BRANCH   4  17
ATOM     17  O3  UNL     1       2.826  83.774  79.953  0.00  0.00    +0.000 OA
ATOM     18  H12 UNL     1       2.045  84.386  79.913  0.00  0.00    +0.000 HD
ENDBRANCH   4  17
BRANCH   3  19
ATOM     19  O4  UNL     1       1.657  83.895  82.508  0.00  0.00    +0.000 OA
ATOM     20  H13 UNL     1       1.330  83.592  83.394  0.00  0.00    +0.000 HD
ENDBRANCH   3  19
BRANCH   2  21
ATOM     21  O5  UNL     1       1.410  81.462  83.540  0.00  0.00    +0.000 OA
ATOM     22  H14 UNL     1       1.647  80.503  83.627  0.00  0.00    +0.000 HD
ENDBRANCH   2  21
BRANCH   5  23
ATOM     23  C12 UNL     1       1.620  82.069  78.209  0.00  0.00    +0.000 C 
BRANCH  23  24
ATOM     24  O2  UNL     1       2.796  82.393  77.520  0.00  0.00    +0.000 OA
ATOM     25  H11 UNL     1       2.532  83.033  76.809  0.00  0.00    +0.000 HD
ENDBRANCH  23  24
ENDBRANCH   5  23
TORSDOF 8
ENDMDL
MODEL 8
REMARK VINA RESULT:      -5.7      1.802      6.370
REMARK  Name = .\Catechins.pdb
REMARK  8 active torsions:
REMARK  status: ('A' for Active; 'I' for Inactive)
REMARK    1  A    between atoms: C3_3  and  O7_19
REMARK    2  A    between atoms: C4_4  and  O6_18
REMARK    3  A    between atoms: C6_6  and  C7_7
REMARK    4  A    between atoms: C8_8  and  O5_17
REMARK    5  A    between atoms: C9_9  and  O4_16
REMARK    6  A    between atoms: C10_10  and  O3_15
REMARK    7  A    between atoms: C11_11  and  C12_13
REMARK    8  A    between atoms: C12_13  and  O2_14
REMARK                            x       y       z     vdW  Elec       q    Type
REMARK                         _______ _______ _______ _____ _____    ______ ____
ROOT
ATOM      1  C7  UNL     1      -0.187  79.833  81.396  0.00  0.00    +0.000 C 
ATOM      2  C8  UNL     1      -1.671  80.205  81.650  0.00  0.00    +0.000 C 
ATOM      3  C9  UNL     1      -2.473  78.988  82.187  0.00  0.00    +0.000 C 
ATOM      4  C10 UNL     1      -1.882  77.674  81.648  0.00  0.00    +0.000 C 
ATOM      5  C11 UNL     1      -0.358  77.574  82.007  0.00  0.00    +0.000 C 
ATOM      6  O1  UNL     1       0.223  78.838  82.317  0.00  0.00    +0.000 OA
ENDROOT
BRANCH   1  12
ATOM      7  C1  UNL     1       2.025  81.034  81.081  0.00  0.00    +0.000 A 
ATOM      8  C2  UNL     1       2.847  82.152  81.247  0.00  0.00    +0.000 A 
ATOM      9  C3  UNL     1       2.356  83.299  81.885  0.00  0.00    +0.000 A 
ATOM     10  C4  UNL     1       1.040  83.321  82.362  0.00  0.00    +0.000 A 
ATOM     11  C5  UNL     1       0.215  82.199  82.194  0.00  0.00    +0.000 A 
ATOM     12  C6  UNL     1       0.696  81.052  81.540  0.00  0.00    +0.000 A 
BRANCH  10  13
ATOM     13  O6  UNL     1       0.558  84.462  83.003  0.00  0.00    +0.000 OA
ATOM     14  H15 UNL     1      -0.426  84.572  83.221  0.00  0.00    +0.000 HD
ENDBRANCH  10  13
BRANCH   9  15
ATOM     15  O7  UNL     1       3.172  84.416  82.052  0.00  0.00    +0.000 OA
ATOM     16  H16 UNL     1       2.810  85.287  82.422  0.00  0.00    +0.000 HD
ENDBRANCH   9  15
ENDBRANCH   1  12
BRANCH   4  17
ATOM     17  O3  UNL     1      -2.604  76.575  82.147  0.00  0.00    +0.000 OA
ATOM     18  H12 UNL     1      -3.115  76.894  82.936  0.00  0.00    +0.000 HD
ENDBRANCH   4  17
BRANCH   3  19
ATOM     19  O4  UNL     1      -3.829  79.087  81.835  0.00  0.00    +0.000 OA
ATOM     20  H13 UNL     1      -3.872  79.013  80.847  0.00  0.00    +0.000 HD
ENDBRANCH   3  19
BRANCH   2  21
ATOM     21  O5  UNL     1      -2.250  80.737  80.482  0.00  0.00    +0.000 OA
ATOM     22  H14 UNL     1      -3.232  80.614  80.549  0.00  0.00    +0.000 HD
ENDBRANCH   2  21
BRANCH   5  23
ATOM     23  C12 UNL     1      -0.093  76.635  83.194  0.00  0.00    +0.000 C 
BRANCH  23  24
ATOM     24  O2  UNL     1      -0.165  75.302  82.769  0.00  0.00    +0.000 OA
ATOM     25  H11 UNL     1       0.516  74.808  83.295  0.00  0.00    +0.000 HD
ENDBRANCH  23  24
ENDBRANCH   5  23
TORSDOF 8
ENDMDL
MODEL 9
REMARK VINA RESULT:      -5.7      2.582      6.161
REMARK  Name = .\Catechins.pdb
REMARK  8 active torsions:
REMARK  status: ('A' for Active; 'I' for Inactive)
REMARK    1  A    between atoms: C3_3  and  O7_19
REMARK    2  A    between atoms: C4_4  and  O6_18
REMARK    3  A    between atoms: C6_6  and  C7_7
REMARK    4  A    between atoms: C8_8  and  O5_17
REMARK    5  A    between atoms: C9_9  and  O4_16
REMARK    6  A    between atoms: C10_10  and  O3_15
REMARK    7  A    between atoms: C11_11  and  C12_13
REMARK    8  A    between atoms: C12_13  and  O2_14
REMARK                            x       y       z     vdW  Elec       q    Type
REMARK                         _______ _______ _______ _____ _____    ______ ____
ROOT
ATOM      1  C7  UNL     1      -1.755  80.191  81.000  0.00  0.00    +0.000 C 
ATOM      2  C8  UNL     1      -3.024  81.082  80.951  0.00  0.00    +0.000 C 
ATOM      3  C9  UNL     1      -4.308  80.247  81.211  0.00  0.00    +0.000 C 
ATOM      4  C10 UNL     1      -4.119  78.802  80.720  0.00  0.00    +0.000 C 
ATOM      5  C11 UNL     1      -2.857  78.158  81.395  0.00  0.00    +0.000 C 
ATOM      6  O1  UNL     1      -1.951  79.127  81.913  0.00  0.00    +0.000 OA
ENDROOT
BRANCH   1  12
ATOM      7  C1  UNL     1       0.456  81.326  80.493  0.00  0.00    +0.000 A 
ATOM      8  C2  UNL     1       1.581  82.051  80.894  0.00  0.00    +0.000 A 
ATOM      9  C3  UNL     1       1.721  82.456  82.228  0.00  0.00    +0.000 A 
ATOM     10  C4  UNL     1       0.730  82.128  83.163  0.00  0.00    +0.000 A 
ATOM     11  C5  UNL     1      -0.399  81.401  82.759  0.00  0.00    +0.000 A 
ATOM     12  C6  UNL     1      -0.553  81.007  81.419  0.00  0.00    +0.000 A 
BRANCH  10  13
ATOM     13  O6  UNL     1       0.877  82.526  84.491  0.00  0.00    +0.000 OA
ATOM     14  H15 UNL     1       0.081  82.814  85.048  0.00  0.00    +0.000 HD
ENDBRANCH  10  13
BRANCH   9  15
ATOM     15  O7  UNL     1       2.841  83.180  82.632  0.00  0.00    +0.000 OA
ATOM     16  H16 UNL     1       3.282  83.017  83.530  0.00  0.00    +0.000 HD
ENDBRANCH   9  15
ENDBRANCH   1  12
BRANCH   4  17
ATOM     17  O3  UNL     1      -5.280  78.047  80.970  0.00  0.00    +0.000 OA
ATOM     18  H12 UNL     1      -5.643  78.349  81.843  0.00  0.00    +0.000 HD
ENDBRANCH   4  17
BRANCH   3  19
ATOM     19  O4  UNL     1      -5.420  80.829  80.581  0.00  0.00    +0.000 OA
ATOM     20  H13 UNL     1      -5.065  81.504  79.946  0.00  0.00    +0.000 HD
ENDBRANCH   3  19
BRANCH   2  21
ATOM     21  O5  UNL     1      -3.091  81.773  79.725  0.00  0.00    +0.000 OA
ATOM     22  H14 UNL     1      -3.804  81.351  79.180  0.00  0.00    +0.000 HD
ENDBRANCH   2  21
BRANCH   5  23
ATOM     23  C12 UNL     1      -3.224  77.202  82.540  0.00  0.00    +0.000 C 
BRANCH  23  24
ATOM     24  O2  UNL     1      -3.859  77.914  83.567  0.00  0.00    +0.000 OA
ATOM     25  H11 UNL     1      -3.436  77.613  84.413  0.00  0.00    +0.000 HD
ENDBRANCH  23  24
ENDBRANCH   5  23
TORSDOF 8
ENDMDL
