MODEL 1
REMARK VINA RESULT:      -5.5      0.000      0.000
REMARK  Name = .\Catechins.pdb
REMARK  8 active torsions:
REMARK  status: ('A' for Active; 'I' for Inactive)
REMARK    1  A    between atoms: C3_3  and  O7_19
REMARK    2  A    between atoms: C4_4  and  O6_18
REMARK    3  A    between atoms: C6_6  and  C7_7
REMARK    4  A    between atoms: C8_8  and  O5_17
REMARK    5  A    between atoms: C9_9  and  O4_16
REMARK    6  A    between atoms: C10_10  and  O3_15
REMARK    7  A    between atoms: C11_11  and  C12_13
REMARK    8  A    between atoms: C12_13  and  O2_14
REMARK                            x       y       z     vdW  Elec       q    Type
REMARK                         _______ _______ _______ _____ _____    ______ ____
ROOT
ATOM      1  C7  UNL     1      -0.470  89.786 109.991  0.00  0.00    +0.000 C 
ATOM      2  C8  UNL     1      -0.770  88.613 110.960  0.00  0.00    +0.000 C 
ATOM      3  C9  UNL     1      -0.451  89.003 112.430  0.00  0.00    +0.000 C 
ATOM      4  C10 UNL     1       0.690  90.033 112.478  0.00  0.00    +0.000 C 
ATOM      5  C11 UNL     1       0.329  91.287 111.607  0.00  0.00    +0.000 C 
ATOM      6  O1  UNL     1      -0.690  91.021 110.648  0.00  0.00    +0.000 OA
ENDROOT
BRANCH   1  12
ATOM      7  C1  UNL     1      -0.791  89.640 107.479  0.00  0.00    +0.000 A 
ATOM      8  C2  UNL     1      -1.612  89.594 106.349  0.00  0.00    +0.000 A 
ATOM      9  C3  UNL     1      -3.006  89.615 106.489  0.00  0.00    +0.000 A 
ATOM     10  C4  UNL     1      -3.577  89.690 107.766  0.00  0.00    +0.000 A 
ATOM     11  C5  UNL     1      -2.752  89.737 108.899  0.00  0.00    +0.000 A 
ATOM     12  C6  UNL     1      -1.353  89.698 108.766  0.00  0.00    +0.000 A 
BRANCH  10  13
ATOM     13  O6  UNL     1      -4.964  89.720 107.901  0.00  0.00    +0.000 OA
ATOM     14  H15 UNL     1      -5.451  89.074 108.510  0.00  0.00    +0.000 HD
ENDBRANCH  10  13
BRANCH   9  15
ATOM     15  O7  UNL     1      -3.828  89.568 105.365  0.00  0.00    +0.000 OA
ATOM     16  H16 UNL     1      -3.635  90.126 104.542  0.00  0.00    +0.000 HD
ENDBRANCH   9  15
ENDBRANCH   1  12
BRANCH   4  17
ATOM     17  O3  UNL     1       0.966  90.392 113.810  0.00  0.00    +0.000 OA
ATOM     18  H12 UNL     1       0.942  89.558 114.349  0.00  0.00    +0.000 HD
ENDBRANCH   4  17
BRANCH   3  19
ATOM     19  O4  UNL     1      -0.110  87.870 113.186  0.00  0.00    +0.000 OA
ATOM     20  H13 UNL     1       0.490  87.320 112.618  0.00  0.00    +0.000 HD
ENDBRANCH   3  19
BRANCH   2  21
ATOM     21  O5  UNL     1      -0.069  87.458 110.564  0.00  0.00    +0.000 OA
ATOM     22  H14 UNL     1      -0.694  86.690 110.625  0.00  0.00    +0.000 HD
ENDBRANCH   2  21
BRANCH   5  23
ATOM     23  C12 UNL     1      -0.129  92.483 112.455  0.00  0.00    +0.000 C 
BRANCH  23  24
ATOM     24  O2  UNL     1      -0.790  93.415 111.644  0.00  0.00    +0.000 OA
ATOM     25  H11 UNL     1      -1.107  94.133 112.251  0.00  0.00    +0.000 HD
ENDBRANCH  23  24
ENDBRANCH   5  23
TORSDOF 8
ENDMDL
MODEL 2
REMARK VINA RESULT:      -5.4      1.666      1.871
REMARK  Name = .\Catechins.pdb
REMARK  8 active torsions:
REMARK  status: ('A' for Active; 'I' for Inactive)
REMARK    1  A    between atoms: C3_3  and  O7_19
REMARK    2  A    between atoms: C4_4  and  O6_18
REMARK    3  A    between atoms: C6_6  and  C7_7
REMARK    4  A    between atoms: C8_8  and  O5_17
REMARK    5  A    between atoms: C9_9  and  O4_16
REMARK    6  A    between atoms: C10_10  and  O3_15
REMARK    7  A    between atoms: C11_11  and  C12_13
REMARK    8  A    between atoms: C12_13  and  O2_14
REMARK                            x       y       z     vdW  Elec       q    Type
REMARK                         _______ _______ _______ _____ _____    ______ ____
ROOT
ATOM      1  C7  UNL     1       0.642  88.765 110.144  0.00  0.00    +0.000 C 
ATOM      2  C8  UNL     1       0.244  87.447 110.859  0.00  0.00    +0.000 C 
ATOM      3  C9  UNL     1       0.739  87.434 112.332  0.00  0.00    +0.000 C 
ATOM      4  C10 UNL     1       2.027  88.263 112.473  0.00  0.00    +0.000 C 
ATOM      5  C11 UNL     1       1.796  89.723 111.948  0.00  0.00    +0.000 C 
ATOM      6  O1  UNL     1       0.672  89.828 111.079  0.00  0.00    +0.000 OA
ENDROOT
BRANCH   1  12
ATOM      7  C1  UNL     1       0.083  89.169 107.703  0.00  0.00    +0.000 A 
ATOM      8  C2  UNL     1      -0.824  89.500 106.692  0.00  0.00    +0.000 A 
ATOM      9  C3  UNL     1      -2.164  89.763 107.006  0.00  0.00    +0.000 A 
ATOM     10  C4  UNL     1      -2.593  89.700 108.337  0.00  0.00    +0.000 A 
ATOM     11  C5  UNL     1      -1.683  89.368 109.351  0.00  0.00    +0.000 A 
ATOM     12  C6  UNL     1      -0.342  89.086 109.041  0.00  0.00    +0.000 A 
BRANCH  10  13
ATOM     13  O6  UNL     1      -3.925  89.971 108.646  0.00  0.00    +0.000 OA
ATOM     14  H15 UNL     1      -4.652  89.278 108.512  0.00  0.00    +0.000 HD
ENDBRANCH  10  13
BRANCH   9  15
ATOM     15  O7  UNL     1      -3.071  90.092 106.001  0.00  0.00    +0.000 OA
ATOM     16  H16 UNL     1      -2.861  90.800 105.307  0.00  0.00    +0.000 HD
ENDBRANCH   9  15
ENDBRANCH   1  12
BRANCH   4  17
ATOM     17  O3  UNL     1       2.465  88.257 113.811  0.00  0.00    +0.000 OA
ATOM     18  H12 UNL     1       1.667  88.414 114.380  0.00  0.00    +0.000 HD
ENDBRANCH   4  17
BRANCH   3  19
ATOM     19  O4  UNL     1       0.960  86.120 112.774  0.00  0.00    +0.000 OA
ATOM     20  H13 UNL     1       0.460  86.019 113.625  0.00  0.00    +0.000 HD
ENDBRANCH   3  19
BRANCH   2  21
ATOM     21  O5  UNL     1       0.720  86.335 110.139  0.00  0.00    +0.000 OA
ATOM     22  H14 UNL     1       0.058  86.130 109.429  0.00  0.00    +0.000 HD
ENDBRANCH   2  21
BRANCH   5  23
ATOM     23  C12 UNL     1       1.602  90.735 113.087  0.00  0.00    +0.000 C 
BRANCH  23  24
ATOM     24  O2  UNL     1       0.443  90.421 113.808  0.00  0.00    +0.000 OA
ATOM     25  H11 UNL     1       0.739  89.875 114.583  0.00  0.00    +0.000 HD
ENDBRANCH  23  24
ENDBRANCH   5  23
TORSDOF 8
ENDMDL
MODEL 3
REMARK VINA RESULT:      -5.3      2.428      3.308
REMARK  Name = .\Catechins.pdb
REMARK  8 active torsions:
REMARK  status: ('A' for Active; 'I' for Inactive)
REMARK    1  A    between atoms: C3_3  and  O7_19
REMARK    2  A    between atoms: C4_4  and  O6_18
REMARK    3  A    between atoms: C6_6  and  C7_7
REMARK    4  A    between atoms: C8_8  and  O5_17
REMARK    5  A    between atoms: C9_9  and  O4_16
REMARK    6  A    between atoms: C10_10  and  O3_15
REMARK    7  A    between atoms: C11_11  and  C12_13
REMARK    8  A    between atoms: C12_13  and  O2_14
REMARK                            x       y       z     vdW  Elec       q    Type
REMARK                         _______ _______ _______ _____ _____    ______ ____
ROOT
ATOM      1  C7  UNL     1       0.010  88.664 110.240  0.00  0.00    +0.000 C 
ATOM      2  C8  UNL     1       1.344  88.015 109.786  0.00  0.00    +0.000 C 
ATOM      3  C9  UNL     1       1.855  86.988 110.833  0.00  0.00    +0.000 C 
ATOM      4  C10 UNL     1       1.406  87.392 112.247  0.00  0.00    +0.000 C 
ATOM      5  C11 UNL     1      -0.154  87.551 112.299  0.00  0.00    +0.000 C 
ATOM      6  O1  UNL     1      -0.735  87.740 111.012  0.00  0.00    +0.000 OA
ENDROOT
BRANCH   1  12
ATOM      7  C1  UNL     1      -0.192  89.275 107.787  0.00  0.00    +0.000 A 
ATOM      8  C2  UNL     1      -0.941  89.708 106.689  0.00  0.00    +0.000 A 
ATOM      9  C3  UNL     1      -2.309  89.978 106.832  0.00  0.00    +0.000 A 
ATOM     10  C4  UNL     1      -2.924  89.820 108.080  0.00  0.00    +0.000 A 
ATOM     11  C5  UNL     1      -2.171  89.385 109.181  0.00  0.00    +0.000 A 
ATOM     12  C6  UNL     1      -0.803  89.096 109.040  0.00  0.00    +0.000 A 
BRANCH  10  13
ATOM     13  O6  UNL     1      -4.282  90.098 108.219  0.00  0.00    +0.000 OA
ATOM     14  H15 UNL     1      -4.947  89.377 108.476  0.00  0.00    +0.000 HD
ENDBRANCH  10  13
BRANCH   9  15
ATOM     15  O7  UNL     1      -3.060  90.409 105.740  0.00  0.00    +0.000 OA
ATOM     16  H16 UNL     1      -3.360  89.766 105.016  0.00  0.00    +0.000 HD
ENDBRANCH   9  15
ENDBRANCH   1  12
BRANCH   4  17
ATOM     17  O3  UNL     1       1.861  86.452 113.189  0.00  0.00    +0.000 OA
ATOM     18  H12 UNL     1       2.033  85.606 112.699  0.00  0.00    +0.000 HD
ENDBRANCH   4  17
BRANCH   3  19
ATOM     19  O4  UNL     1       3.254  86.877 110.784  0.00  0.00    +0.000 OA
ATOM     20  H13 UNL     1       3.471  85.928 110.977  0.00  0.00    +0.000 HD
ENDBRANCH   3  19
BRANCH   2  21
ATOM     21  O5  UNL     1       2.305  89.008 109.517  0.00  0.00    +0.000 OA
ATOM     22  H14 UNL     1       2.210  89.270 108.565  0.00  0.00    +0.000 HD
ENDBRANCH   2  21
BRANCH   5  23
ATOM     23  C12 UNL     1      -0.848  86.348 112.953  0.00  0.00    +0.000 C 
BRANCH  23  24
ATOM     24  O2  UNL     1      -0.806  85.247 112.087  0.00  0.00    +0.000 OA
ATOM     25  H11 UNL     1      -1.615  84.708 112.285  0.00  0.00    +0.000 HD
ENDBRANCH  23  24
ENDBRANCH   5  23
TORSDOF 8
ENDMDL
MODEL 4
REMARK VINA RESULT:      -5.1      1.831      3.484
REMARK  Name = .\Catechins.pdb
REMARK  8 active torsions:
REMARK  status: ('A' for Active; 'I' for Inactive)
REMARK    1  A    between atoms: C3_3  and  O7_19
REMARK    2  A    between atoms: C4_4  and  O6_18
REMARK    3  A    between atoms: C6_6  and  C7_7
REMARK    4  A    between atoms: C8_8  and  O5_17
REMARK    5  A    between atoms: C9_9  and  O4_16
REMARK    6  A    between atoms: C10_10  and  O3_15
REMARK    7  A    between atoms: C11_11  and  C12_13
REMARK    8  A    between atoms: C12_13  and  O2_14
REMARK                            x       y       z     vdW  Elec       q    Type
REMARK                         _______ _______ _______ _____ _____    ______ ____
ROOT
ATOM      1  C7  UNL     1      -0.347  88.555 110.724  0.00  0.00    +0.000 C 
ATOM      2  C8  UNL     1       0.955  89.308 111.104  0.00  0.00    +0.000 C 
ATOM      3  C9  UNL     1       1.829  88.465 112.073  0.00  0.00    +0.000 C 
ATOM      4  C10 UNL     1       0.944  87.557 112.944  0.00  0.00    +0.000 C 
ATOM      5  C11 UNL     1       0.036  86.652 112.040  0.00  0.00    +0.000 C 
ATOM      6  O1  UNL     1      -0.111  87.159 110.717  0.00  0.00    +0.000 OA
ENDROOT
BRANCH   1  12
ATOM      7  C1  UNL     1       0.010  88.910 108.238  0.00  0.00    +0.000 A 
ATOM      8  C2  UNL     1      -0.431  89.350 106.987  0.00  0.00    +0.000 A 
ATOM      9  C3  UNL     1      -1.716  89.892 106.843  0.00  0.00    +0.000 A 
ATOM     10  C4  UNL     1      -2.556  89.998 107.958  0.00  0.00    +0.000 A 
ATOM     11  C5  UNL     1      -2.113  89.556 109.213  0.00  0.00    +0.000 A 
ATOM     12  C6  UNL     1      -0.832  88.995 109.360  0.00  0.00    +0.000 A 
BRANCH  10  13
ATOM     13  O6  UNL     1      -3.830  90.545 107.812  0.00  0.00    +0.000 OA
ATOM     14  H15 UNL     1      -4.282  91.045 108.569  0.00  0.00    +0.000 HD
ENDBRANCH  10  13
BRANCH   9  15
ATOM     15  O7  UNL     1      -2.160  90.331 105.597  0.00  0.00    +0.000 OA
ATOM     16  H16 UNL     1      -1.609  90.966 105.031  0.00  0.00    +0.000 HD
ENDBRANCH   9  15
ENDBRANCH   1  12
BRANCH   4  17
ATOM     17  O3  UNL     1       1.741  86.787 113.811  0.00  0.00    +0.000 OA
ATOM     18  H12 UNL     1       1.133  86.176 114.303  0.00  0.00    +0.000 HD
ENDBRANCH   4  17
BRANCH   3  19
ATOM     19  O4  UNL     1       2.617  89.294 112.887  0.00  0.00    +0.000 OA
ATOM     20  H13 UNL     1       2.648  88.867 113.782  0.00  0.00    +0.000 HD
ENDBRANCH   3  19
BRANCH   2  21
ATOM     21  O5  UNL     1       0.651  90.573 111.643  0.00  0.00    +0.000 OA
ATOM     22  H14 UNL     1       1.104  90.642 112.522  0.00  0.00    +0.000 HD
ENDBRANCH   2  21
BRANCH   5  23
ATOM     23  C12 UNL     1       0.559  85.212 111.933  0.00  0.00    +0.000 C 
BRANCH  23  24
ATOM     24  O2  UNL     1       1.847  85.215 111.380  0.00  0.00    +0.000 OA
ATOM     25  H11 UNL     1       2.153  86.159 111.400  0.00  0.00    +0.000 HD
ENDBRANCH  23  24
ENDBRANCH   5  23
TORSDOF 8
ENDMDL
MODEL 5
REMARK VINA RESULT:      -4.1      2.241      3.213
REMARK  Name = .\Catechins.pdb
REMARK  8 active torsions:
REMARK  status: ('A' for Active; 'I' for Inactive)
REMARK    1  A    between atoms: C3_3  and  O7_19
REMARK    2  A    between atoms: C4_4  and  O6_18
REMARK    3  A    between atoms: C6_6  and  C7_7
REMARK    4  A    between atoms: C8_8  and  O5_17
REMARK    5  A    between atoms: C9_9  and  O4_16
REMARK    6  A    between atoms: C10_10  and  O3_15
REMARK    7  A    between atoms: C11_11  and  C12_13
REMARK    8  A    between atoms: C12_13  and  O2_14
REMARK                            x       y       z     vdW  Elec       q    Type
REMARK                         _______ _______ _______ _____ _____    ______ ____
ROOT
ATOM      1  C7  UNL     1      -1.106  89.431 109.236  0.00  0.00    +0.000 C 
ATOM      2  C8  UNL     1       0.245  88.826 108.771  0.00  0.00    +0.000 C 
ATOM      3  C9  UNL     1       0.919  88.013 109.909  0.00  0.00    +0.000 C 
ATOM      4  C10 UNL     1       0.538  88.592 111.282  0.00  0.00    +0.000 C 
ATOM      5  C11 UNL     1      -1.022  88.636 111.441  0.00  0.00    +0.000 C 
ATOM      6  O1  UNL     1      -1.708  88.580 110.194  0.00  0.00    +0.000 OA
ENDROOT
BRANCH   1  12
ATOM      7  C1  UNL     1      -3.374  89.178 108.128  0.00  0.00    +0.000 A 
ATOM      8  C2  UNL     1      -4.221  89.315 107.025  0.00  0.00    +0.000 A 
ATOM      9  C3  UNL     1      -3.742  89.876 105.834  0.00  0.00    +0.000 A 
ATOM     10  C4  UNL     1      -2.408  90.295 105.748  0.00  0.00    +0.000 A 
ATOM     11  C5  UNL     1      -1.558  90.157 106.855  0.00  0.00    +0.000 A 
ATOM     12  C6  UNL     1      -2.038  89.611 108.058  0.00  0.00    +0.000 A 
BRANCH  10  13
ATOM     13  O6  UNL     1      -1.933  90.845 104.558  0.00  0.00    +0.000 OA
ATOM     14  H15 UNL     1      -2.471  91.530 104.040  0.00  0.00    +0.000 HD
ENDBRANCH  10  13
BRANCH   9  15
ATOM     15  O7  UNL     1      -4.583  90.016 104.732  0.00  0.00    +0.000 OA
ATOM     16  H16 UNL     1      -4.226  89.987 103.784  0.00  0.00    +0.000 HD
ENDBRANCH   9  15
ENDBRANCH   1  12
BRANCH   4  17
ATOM     17  O3  UNL     1       1.141  87.844 112.310  0.00  0.00    +0.000 OA
ATOM     18  H12 UNL     1       2.124  87.920 112.190  0.00  0.00    +0.000 HD
ENDBRANCH   4  17
BRANCH   3  19
ATOM     19  O4  UNL     1       2.315  88.005 109.760  0.00  0.00    +0.000 OA
ATOM     20  H13 UNL     1       2.696  87.839 110.661  0.00  0.00    +0.000 HD
ENDBRANCH   3  19
BRANCH   2  21
ATOM     21  O5  UNL     1       1.092  89.838 108.280  0.00  0.00    +0.000 OA
ATOM     22  H14 UNL     1       1.597  89.463 107.514  0.00  0.00    +0.000 HD
ENDBRANCH   2  21
BRANCH   5  23
ATOM     23  C12 UNL     1      -1.558  87.495 112.320  0.00  0.00    +0.000 C 
BRANCH  23  24
ATOM     24  O2  UNL     1      -2.842  87.132 111.895  0.00  0.00    +0.000 OA
ATOM     25  H11 UNL     1      -2.883  87.346 110.926  0.00  0.00    +0.000 HD
ENDBRANCH  23  24
ENDBRANCH   5  23
TORSDOF 8
ENDMDL
MODEL 6
REMARK VINA RESULT:      -3.8      1.724      3.488
REMARK  Name = .\Catechins.pdb
REMARK  8 active torsions:
REMARK  status: ('A' for Active; 'I' for Inactive)
REMARK    1  A    between atoms: C3_3  and  O7_19
REMARK    2  A    between atoms: C4_4  and  O6_18
REMARK    3  A    between atoms: C6_6  and  C7_7
REMARK    4  A    between atoms: C8_8  and  O5_17
REMARK    5  A    between atoms: C9_9  and  O4_16
REMARK    6  A    between atoms: C10_10  and  O3_15
REMARK    7  A    between atoms: C11_11  and  C12_13
REMARK    8  A    between atoms: C12_13  and  O2_14
REMARK                            x       y       z     vdW  Elec       q    Type
REMARK                         _______ _______ _______ _____ _____    ______ ____
ROOT
ATOM      1  C7  UNL     1      -1.327  89.320 109.329  0.00  0.00    +0.000 C 
ATOM      2  C8  UNL     1      -0.827  90.646 109.959  0.00  0.00    +0.000 C 
ATOM      3  C9  UNL     1       0.490  90.429 110.754  0.00  0.00    +0.000 C 
ATOM      4  C10 UNL     1       0.544  89.003 111.327  0.00  0.00    +0.000 C 
ATOM      5  C11 UNL     1       0.376  87.948 110.178  0.00  0.00    +0.000 C 
ATOM      6  O1  UNL     1      -0.222  88.495 109.007  0.00  0.00    +0.000 OA
ENDROOT
BRANCH   1  12
ATOM      7  C1  UNL     1      -3.481  89.205 107.993  0.00  0.00    +0.000 A 
ATOM      8  C2  UNL     1      -4.212  89.435 106.825  0.00  0.00    +0.000 A 
ATOM      9  C3  UNL     1      -3.604  90.052 105.723  0.00  0.00    +0.000 A 
ATOM     10  C4  UNL     1      -2.258  90.433 105.793  0.00  0.00    +0.000 A 
ATOM     11  C5  UNL     1      -1.525  90.201 106.966  0.00  0.00    +0.000 A 
ATOM     12  C6  UNL     1      -2.134  89.600 108.080  0.00  0.00    +0.000 A 
BRANCH  10  13
ATOM     13  O6  UNL     1      -1.654  91.038 104.691  0.00  0.00    +0.000 OA
ATOM     14  H15 UNL     1      -0.927  91.734 104.802  0.00  0.00    +0.000 HD
ENDBRANCH  10  13
BRANCH   9  15
ATOM     15  O7  UNL     1      -4.329  90.284 104.556  0.00  0.00    +0.000 OA
ATOM     16  H16 UNL     1      -5.341  90.237 104.542  0.00  0.00    +0.000 HD
ENDBRANCH   9  15
ENDBRANCH   1  12
BRANCH   4  17
ATOM     17  O3  UNL     1       1.744  88.808 112.036  0.00  0.00    +0.000 OA
ATOM     18  H12 UNL     1       2.416  89.428 111.649  0.00  0.00    +0.000 HD
ENDBRANCH   4  17
BRANCH   3  19
ATOM     19  O4  UNL     1       0.610  91.370 111.790  0.00  0.00    +0.000 OA
ATOM     20  H13 UNL     1      -0.093  91.151 112.455  0.00  0.00    +0.000 HD
ENDBRANCH   3  19
BRANCH   2  21
ATOM     21  O5  UNL     1      -1.833  91.218 110.762  0.00  0.00    +0.000 OA
ATOM     22  H14 UNL     1      -1.548  92.139 110.991  0.00  0.00    +0.000 HD
ENDBRANCH   2  21
BRANCH   5  23
ATOM     23  C12 UNL     1       1.709  87.307 109.766  0.00  0.00    +0.000 C 
BRANCH  23  24
ATOM     24  O2  UNL     1       1.477  86.039 109.218  0.00  0.00    +0.000 OA
ATOM     25  H11 UNL     1       0.575  86.077 108.804  0.00  0.00    +0.000 HD
ENDBRANCH  23  24
ENDBRANCH   5  23
TORSDOF 8
ENDMDL
MODEL 7
REMARK VINA RESULT:      -2.9      2.781      3.812
REMARK  Name = .\Catechins.pdb
REMARK  8 active torsions:
REMARK  status: ('A' for Active; 'I' for Inactive)
REMARK    1  A    between atoms: C3_3  and  O7_19
REMARK    2  A    between atoms: C4_4  and  O6_18
REMARK    3  A    between atoms: C6_6  and  C7_7
REMARK    4  A    between atoms: C8_8  and  O5_17
REMARK    5  A    between atoms: C9_9  and  O4_16
REMARK    6  A    between atoms: C10_10  and  O3_15
REMARK    7  A    between atoms: C11_11  and  C12_13
REMARK    8  A    between atoms: C12_13  and  O2_14
REMARK                            x       y       z     vdW  Elec       q    Type
REMARK                         _______ _______ _______ _____ _____    ______ ____
ROOT
ATOM      1  C7  UNL     1       0.186  88.377 110.368  0.00  0.00    +0.000 C 
ATOM      2  C8  UNL     1       1.034  87.126 110.017  0.00  0.00    +0.000 C 
ATOM      3  C9  UNL     1       0.876  86.018 111.094  0.00  0.00    +0.000 C 
ATOM      4  C10 UNL     1       0.594  86.643 112.471  0.00  0.00    +0.000 C 
ATOM      5  C11 UNL     1      -0.668  87.572 112.399  0.00  0.00    +0.000 C 
ATOM      6  O1  UNL     1      -0.978  87.985 111.072  0.00  0.00    +0.000 OA
ENDROOT
BRANCH   1  12
ATOM      7  C1  UNL     1      -1.521  89.052 108.618  0.00  0.00    +0.000 A 
ATOM      8  C2  UNL     1      -1.869  89.712 107.436  0.00  0.00    +0.000 A 
ATOM      9  C3  UNL     1      -0.905  90.439 106.724  0.00  0.00    +0.000 A 
ATOM     10  C4  UNL     1       0.412  90.498 107.197  0.00  0.00    +0.000 A 
ATOM     11  C5  UNL     1       0.760  89.836 108.383  0.00  0.00    +0.000 A 
ATOM     12  C6  UNL     1      -0.206  89.120 109.110  0.00  0.00    +0.000 A 
BRANCH  10  13
ATOM     13  O6  UNL     1       1.369  91.216 106.481  0.00  0.00    +0.000 OA
ATOM     14  H15 UNL     1       2.037  91.818 106.947  0.00  0.00    +0.000 HD
ENDBRANCH  10  13
BRANCH   9  15
ATOM     15  O7  UNL     1      -1.249  91.099 105.547  0.00  0.00    +0.000 OA
ATOM     16  H16 UNL     1      -1.514  90.591 104.711  0.00  0.00    +0.000 HD
ENDBRANCH   9  15
ENDBRANCH   1  12
BRANCH   4  17
ATOM     17  O3  UNL     1       0.439  85.634 113.440  0.00  0.00    +0.000 OA
ATOM     18  H12 UNL     1       0.748  84.785 113.030  0.00  0.00    +0.000 HD
ENDBRANCH   4  17
BRANCH   3  19
ATOM     19  O4  UNL     1       2.024  85.212 111.155  0.00  0.00    +0.000 OA
ATOM     20  H13 UNL     1       1.976  84.715 112.013  0.00  0.00    +0.000 HD
ENDBRANCH   3  19
BRANCH   2  21
ATOM     21  O5  UNL     1       2.384  87.485 109.832  0.00  0.00    +0.000 OA
ATOM     22  H14 UNL     1       2.828  87.451 110.718  0.00  0.00    +0.000 HD
ENDBRANCH   2  21
BRANCH   5  23
ATOM     23  C12 UNL     1      -1.922  86.910 112.988  0.00  0.00    +0.000 C 
BRANCH  23  24
ATOM     24  O2  UNL     1      -3.005  87.086 112.116  0.00  0.00    +0.000 OA
ATOM     25  H11 UNL     1      -3.178  86.197 111.708  0.00  0.00    +0.000 HD
ENDBRANCH  23  24
ENDBRANCH   5  23
TORSDOF 8
ENDMDL
MODEL 8
REMARK VINA RESULT:      -2.6      2.775      6.053
REMARK  Name = .\Catechins.pdb
REMARK  8 active torsions:
REMARK  status: ('A' for Active; 'I' for Inactive)
REMARK    1  A    between atoms: C3_3  and  O7_19
REMARK    2  A    between atoms: C4_4  and  O6_18
REMARK    3  A    between atoms: C6_6  and  C7_7
REMARK    4  A    between atoms: C8_8  and  O5_17
REMARK    5  A    between atoms: C9_9  and  O4_16
REMARK    6  A    between atoms: C10_10  and  O3_15
REMARK    7  A    between atoms: C11_11  and  C12_13
REMARK    8  A    between atoms: C12_13  and  O2_14
REMARK                            x       y       z     vdW  Elec       q    Type
REMARK                         _______ _______ _______ _____ _____    ______ ____
ROOT
ATOM      1  C7  UNL     1       0.147  88.202 109.040  0.00  0.00    +0.000 C 
ATOM      2  C8  UNL     1       1.222  89.165 108.471  0.00  0.00    +0.000 C 
ATOM      3  C9  UNL     1       0.572  90.309 107.645  0.00  0.00    +0.000 C 
ATOM      4  C10 UNL     1      -0.739  89.829 107.000  0.00  0.00    +0.000 C 
ATOM      5  C11 UNL     1      -1.714  89.274 108.095  0.00  0.00    +0.000 C 
ATOM      6  O1  UNL     1      -1.047  88.917 109.302  0.00  0.00    +0.000 OA
ENDROOT
BRANCH   1  12
ATOM      7  C1  UNL     1       2.013  87.319 110.514  0.00  0.00    +0.000 A 
ATOM      8  C2  UNL     1       2.460  86.686 111.677  0.00  0.00    +0.000 A 
ATOM      9  C3  UNL     1       1.543  86.268 112.650  0.00  0.00    +0.000 A 
ATOM     10  C4  UNL     1       0.173  86.480 112.451  0.00  0.00    +0.000 A 
ATOM     11  C5  UNL     1      -0.276  87.114 111.284  0.00  0.00    +0.000 A 
ATOM     12  C6  UNL     1       0.641  87.552 110.313  0.00  0.00    +0.000 A 
BRANCH  10  13
ATOM     13  O6  UNL     1      -0.737  86.054 113.418  0.00  0.00    +0.000 OA
ATOM     14  H15 UNL     1      -0.485  86.004 114.398  0.00  0.00    +0.000 HD
ENDBRANCH  10  13
BRANCH   9  15
ATOM     15  O7  UNL     1       1.985  85.638 113.811  0.00  0.00    +0.000 OA
ATOM     16  H16 UNL     1       2.950  85.702 114.115  0.00  0.00    +0.000 HD
ENDBRANCH   9  15
ENDBRANCH   1  12
BRANCH   4  17
ATOM     17  O3  UNL     1      -1.329  90.873 106.264  0.00  0.00    +0.000 OA
ATOM     18  H12 UNL     1      -0.924  91.722 106.583  0.00  0.00    +0.000 HD
ENDBRANCH   4  17
BRANCH   3  19
ATOM     19  O4  UNL     1       1.454  90.777 106.657  0.00  0.00    +0.000 OA
ATOM     20  H13 UNL     1       2.134  91.329 107.122  0.00  0.00    +0.000 HD
ENDBRANCH   3  19
BRANCH   2  21
ATOM     21  O5  UNL     1       2.169  88.449 107.714  0.00  0.00    +0.000 OA
ATOM     22  H14 UNL     1       1.733  88.174 106.867  0.00  0.00    +0.000 HD
ENDBRANCH   2  21
BRANCH   5  23
ATOM     23  C12 UNL     1      -2.827  90.270 108.454  0.00  0.00    +0.000 C 
BRANCH  23  24
ATOM     24  O2  UNL     1      -4.058  89.603 108.516  0.00  0.00    +0.000 OA
ATOM     25  H11 UNL     1      -4.664  90.084 107.895  0.00  0.00    +0.000 HD
ENDBRANCH  23  24
ENDBRANCH   5  23
TORSDOF 8
ENDMDL
