MODEL 1
REMARK VINA RESULT:      -6.2      0.000      0.000
REMARK  Name = .\Catechins.pdb
REMARK  8 active torsions:
REMARK  status: ('A' for Active; 'I' for Inactive)
REMARK    1  A    between atoms: C3_3  and  O7_19
REMARK    2  A    between atoms: C4_4  and  O6_18
REMARK    3  A    between atoms: C6_6  and  C7_7
REMARK    4  A    between atoms: C8_8  and  O5_17
REMARK    5  A    between atoms: C9_9  and  O4_16
REMARK    6  A    between atoms: C10_10  and  O3_15
REMARK    7  A    between atoms: C11_11  and  C12_13
REMARK    8  A    between atoms: C12_13  and  O2_14
REMARK                            x       y       z     vdW  Elec       q    Type
REMARK                         _______ _______ _______ _____ _____    ______ ____
ROOT
ATOM      1  C7  UNL     1       0.193  35.046  17.599  0.00  0.00    +0.000 C 
ATOM      2  C8  UNL     1       1.714  35.049  17.291  0.00  0.00    +0.000 C 
ATOM      3  C9  UNL     1       2.167  33.695  16.679  0.00  0.00    +0.000 C 
ATOM      4  C10 UNL     1       1.285  32.548  17.201  0.00  0.00    +0.000 C 
ATOM      5  C11 UNL     1      -0.227  32.845  16.906  0.00  0.00    +0.000 C 
ATOM      6  O1  UNL     1      -0.484  34.225  16.665  0.00  0.00    +0.000 OA
ENDROOT
BRANCH   1  12
ATOM      7  C1  UNL     1       0.160  37.388  16.624  0.00  0.00    +0.000 A 
ATOM      8  C2  UNL     1      -0.332  38.696  16.593  0.00  0.00    +0.000 A 
ATOM      9  C3  UNL     1      -1.344  39.089  17.480  0.00  0.00    +0.000 A 
ATOM     10  C4  UNL     1      -1.858  38.169  18.402  0.00  0.00    +0.000 A 
ATOM     11  C5  UNL     1      -1.364  36.857  18.432  0.00  0.00    +0.000 A 
ATOM     12  C6  UNL     1      -0.361  36.452  17.535  0.00  0.00    +0.000 A 
BRANCH  10  13
ATOM     13  O6  UNL     1      -2.859  38.567  19.287  0.00  0.00    +0.000 OA
ATOM     14  H15 UNL     1      -3.633  37.956  19.522  0.00  0.00    +0.000 HD
ENDBRANCH  10  13
BRANCH   9  15
ATOM     15  O7  UNL     1      -1.839  40.391  17.451  0.00  0.00    +0.000 OA
ATOM     16  H16 UNL     1      -1.222  41.192  17.377  0.00  0.00    +0.000 HD
ENDBRANCH   9  15
ENDBRANCH   1  12
BRANCH   4  17
ATOM     17  O3  UNL     1       1.692  31.326  16.634  0.00  0.00    +0.000 OA
ATOM     18  H12 UNL     1       1.272  30.602  17.168  0.00  0.00    +0.000 HD
ENDBRANCH   4  17
BRANCH   3  19
ATOM     19  O4  UNL     1       3.516  33.439  16.973  0.00  0.00    +0.000 OA
ATOM     20  H13 UNL     1       3.966  34.322  17.029  0.00  0.00    +0.000 HD
ENDBRANCH   3  19
BRANCH   2  21
ATOM     21  O5  UNL     1       2.448  35.370  18.449  0.00  0.00    +0.000 OA
ATOM     22  H14 UNL     1       3.166  36.002  18.186  0.00  0.00    +0.000 HD
ENDBRANCH   2  21
BRANCH   5  23
ATOM     23  C12 UNL     1      -0.760  32.053  15.703  0.00  0.00    +0.000 C 
BRANCH  23  24
ATOM     24  O2  UNL     1      -1.510  32.897  14.874  0.00  0.00    +0.000 OA
ATOM     25  H11 UNL     1      -2.395  32.461  14.765  0.00  0.00    +0.000 HD
ENDBRANCH  23  24
ENDBRANCH   5  23
TORSDOF 8
ENDMDL
MODEL 2
REMARK VINA RESULT:      -6.1      1.206      2.704
REMARK  Name = .\Catechins.pdb
REMARK  8 active torsions:
REMARK  status: ('A' for Active; 'I' for Inactive)
REMARK    1  A    between atoms: C3_3  and  O7_19
REMARK    2  A    between atoms: C4_4  and  O6_18
REMARK    3  A    between atoms: C6_6  and  C7_7
REMARK    4  A    between atoms: C8_8  and  O5_17
REMARK    5  A    between atoms: C9_9  and  O4_16
REMARK    6  A    between atoms: C10_10  and  O3_15
REMARK    7  A    between atoms: C11_11  and  C12_13
REMARK    8  A    between atoms: C12_13  and  O2_14
REMARK                            x       y       z     vdW  Elec       q    Type
REMARK                         _______ _______ _______ _____ _____    ______ ____
ROOT
ATOM      1  C7  UNL     1       0.390  35.134  16.944  0.00  0.00    +0.000 C 
ATOM      2  C8  UNL     1      -0.681  34.011  16.941  0.00  0.00    +0.000 C 
ATOM      3  C9  UNL     1      -0.072  32.652  17.385  0.00  0.00    +0.000 C 
ATOM      4  C10 UNL     1       1.414  32.576  16.997  0.00  0.00    +0.000 C 
ATOM      5  C11 UNL     1       2.198  33.793  17.603  0.00  0.00    +0.000 C 
ATOM      6  O1  UNL     1       1.348  34.880  17.955  0.00  0.00    +0.000 OA
ENDROOT
BRANCH   1  12
ATOM      7  C1  UNL     1       0.223  37.632  16.538  0.00  0.00    +0.000 A 
ATOM      8  C2  UNL     1      -0.357  38.879  16.790  0.00  0.00    +0.000 A 
ATOM      9  C3  UNL     1      -1.417  38.993  17.699  0.00  0.00    +0.000 A 
ATOM     10  C4  UNL     1      -1.892  37.853  18.361  0.00  0.00    +0.000 A 
ATOM     11  C5  UNL     1      -1.310  36.603  18.108  0.00  0.00    +0.000 A 
ATOM     12  C6  UNL     1      -0.258  36.480  17.184  0.00  0.00    +0.000 A 
BRANCH  10  13
ATOM     13  O6  UNL     1      -2.941  37.972  19.271  0.00  0.00    +0.000 OA
ATOM     14  H15 UNL     1      -3.301  38.878  19.550  0.00  0.00    +0.000 HD
ENDBRANCH  10  13
BRANCH   9  15
ATOM     15  O7  UNL     1      -1.998  40.233  17.952  0.00  0.00    +0.000 OA
ATOM     16  H16 UNL     1      -2.122  40.579  18.897  0.00  0.00    +0.000 HD
ENDBRANCH   9  15
ENDBRANCH   1  12
BRANCH   4  17
ATOM     17  O3  UNL     1       1.963  31.349  17.413  0.00  0.00    +0.000 OA
ATOM     18  H12 UNL     1       1.801  31.271  18.389  0.00  0.00    +0.000 HD
ENDBRANCH   4  17
BRANCH   3  19
ATOM     19  O4  UNL     1      -0.775  31.579  16.815  0.00  0.00    +0.000 OA
ATOM     20  H13 UNL     1      -0.141  31.115  16.207  0.00  0.00    +0.000 HD
ENDBRANCH   3  19
BRANCH   2  21
ATOM     21  O5  UNL     1      -1.291  33.920  15.675  0.00  0.00    +0.000 OA
ATOM     22  H14 UNL     1      -0.587  33.684  15.017  0.00  0.00    +0.000 HD
ENDBRANCH   2  21
BRANCH   5  23
ATOM     23  C12 UNL     1       3.009  33.410  18.850  0.00  0.00    +0.000 C 
BRANCH  23  24
ATOM     24  O2  UNL     1       2.139  33.079  19.898  0.00  0.00    +0.000 OA
ATOM     25  H11 UNL     1       2.090  32.088  19.914  0.00  0.00    +0.000 HD
ENDBRANCH  23  24
ENDBRANCH   5  23
TORSDOF 8
ENDMDL
MODEL 3
REMARK VINA RESULT:      -6.1      1.426      1.884
REMARK  Name = .\Catechins.pdb
REMARK  8 active torsions:
REMARK  status: ('A' for Active; 'I' for Inactive)
REMARK    1  A    between atoms: C3_3  and  O7_19
REMARK    2  A    between atoms: C4_4  and  O6_18
REMARK    3  A    between atoms: C6_6  and  C7_7
REMARK    4  A    between atoms: C8_8  and  O5_17
REMARK    5  A    between atoms: C9_9  and  O4_16
REMARK    6  A    between atoms: C10_10  and  O3_15
REMARK    7  A    between atoms: C11_11  and  C12_13
REMARK    8  A    between atoms: C12_13  and  O2_14
REMARK                            x       y       z     vdW  Elec       q    Type
REMARK                         _______ _______ _______ _____ _____    ______ ____
ROOT
ATOM      1  C7  UNL     1      -0.440  34.459  17.266  0.00  0.00    +0.000 C 
ATOM      2  C8  UNL     1       0.953  34.309  17.931  0.00  0.00    +0.000 C 
ATOM      3  C9  UNL     1       1.634  32.976  17.516  0.00  0.00    +0.000 C 
ATOM      4  C10 UNL     1       0.575  31.898  17.230  0.00  0.00    +0.000 C 
ATOM      5  C11 UNL     1      -0.435  32.402  16.139  0.00  0.00    +0.000 C 
ATOM      6  O1  UNL     1      -0.440  33.819  16.002  0.00  0.00    +0.000 OA
ENDROOT
BRANCH   1  12
ATOM      7  C1  UNL     1      -2.131  36.335  17.029  0.00  0.00    +0.000 A 
ATOM      8  C2  UNL     1      -2.448  37.683  16.836  0.00  0.00    +0.000 A 
ATOM      9  C3  UNL     1      -1.428  38.634  16.696  0.00  0.00    +0.000 A 
ATOM     10  C4  UNL     1      -0.087  38.229  16.742  0.00  0.00    +0.000 A 
ATOM     11  C5  UNL     1       0.229  36.876  16.935  0.00  0.00    +0.000 A 
ATOM     12  C6  UNL     1      -0.789  35.921  17.095  0.00  0.00    +0.000 A 
BRANCH  10  13
ATOM     13  O6  UNL     1       0.924  39.176  16.593  0.00  0.00    +0.000 OA
ATOM     14  H15 UNL     1       0.733  40.170  16.652  0.00  0.00    +0.000 HD
ENDBRANCH  10  13
BRANCH   9  15
ATOM     15  O7  UNL     1      -1.739  39.978  16.505  0.00  0.00    +0.000 OA
ATOM     16  H16 UNL     1      -1.016  40.684  16.426  0.00  0.00    +0.000 HD
ENDBRANCH   9  15
ENDBRANCH   1  12
BRANCH   4  17
ATOM     17  O3  UNL     1       1.196  30.696  16.843  0.00  0.00    +0.000 OA
ATOM     18  H12 UNL     1       1.330  30.739  15.860  0.00  0.00    +0.000 HD
ENDBRANCH   4  17
BRANCH   3  19
ATOM     19  O4  UNL     1       2.516  32.532  18.515  0.00  0.00    +0.000 OA
ATOM     20  H13 UNL     1       2.705  31.577  18.323  0.00  0.00    +0.000 HD
ENDBRANCH   3  19
BRANCH   2  21
ATOM     21  O5  UNL     1       0.843  34.425  19.330  0.00  0.00    +0.000 OA
ATOM     22  H14 UNL     1       1.753  34.583  19.692  0.00  0.00    +0.000 HD
ENDBRANCH   2  21
BRANCH   5  23
ATOM     23  C12 UNL     1      -0.155  31.800  14.754  0.00  0.00    +0.000 C 
BRANCH  23  24
ATOM     24  O2  UNL     1       0.014  32.827  13.816  0.00  0.00    +0.000 OA
ATOM     25  H11 UNL     1       0.725  33.417  14.178  0.00  0.00    +0.000 HD
ENDBRANCH  23  24
ENDBRANCH   5  23
TORSDOF 8
ENDMDL
MODEL 4
REMARK VINA RESULT:      -5.9      1.857      5.906
REMARK  Name = .\Catechins.pdb
REMARK  8 active torsions:
REMARK  status: ('A' for Active; 'I' for Inactive)
REMARK    1  A    between atoms: C3_3  and  O7_19
REMARK    2  A    between atoms: C4_4  and  O6_18
REMARK    3  A    between atoms: C6_6  and  C7_7
REMARK    4  A    between atoms: C8_8  and  O5_17
REMARK    5  A    between atoms: C9_9  and  O4_16
REMARK    6  A    between atoms: C10_10  and  O3_15
REMARK    7  A    between atoms: C11_11  and  C12_13
REMARK    8  A    between atoms: C12_13  and  O2_14
REMARK                            x       y       z     vdW  Elec       q    Type
REMARK                         _______ _______ _______ _____ _____    ______ ____
ROOT
ATOM      1  C7  UNL     1      -0.259  35.629  16.970  0.00  0.00    +0.000 C 
ATOM      2  C8  UNL     1       0.685  36.850  17.128  0.00  0.00    +0.000 C 
ATOM      3  C9  UNL     1      -0.121  38.171  17.259  0.00  0.00    +0.000 C 
ATOM      4  C10 UNL     1      -1.451  38.067  16.494  0.00  0.00    +0.000 C 
ATOM      5  C11 UNL     1      -2.274  36.830  16.998  0.00  0.00    +0.000 C 
ATOM      6  O1  UNL     1      -1.469  35.865  17.667  0.00  0.00    +0.000 OA
ENDROOT
BRANCH   1  12
ATOM      7  C1  UNL     1      -0.171  33.113  17.280  0.00  0.00    +0.000 A 
ATOM      8  C2  UNL     1       0.425  31.963  17.806  0.00  0.00    +0.000 A 
ATOM      9  C3  UNL     1       1.593  32.063  18.574  0.00  0.00    +0.000 A 
ATOM     10  C4  UNL     1       2.160  33.319  18.819  0.00  0.00    +0.000 A 
ATOM     11  C5  UNL     1       1.562  34.473  18.291  0.00  0.00    +0.000 A 
ATOM     12  C6  UNL     1       0.401  34.378  17.505  0.00  0.00    +0.000 A 
BRANCH  10  13
ATOM     13  O6  UNL     1       3.317  33.415  19.591  0.00  0.00    +0.000 OA
ATOM     14  H15 UNL     1       3.395  34.081  20.350  0.00  0.00    +0.000 HD
ENDBRANCH  10  13
BRANCH   9  15
ATOM     15  O7  UNL     1       2.190  30.919  19.100  0.00  0.00    +0.000 OA
ATOM     16  H16 UNL     1       2.994  30.975  19.714  0.00  0.00    +0.000 HD
ENDBRANCH   9  15
ENDBRANCH   1  12
BRANCH   4  17
ATOM     17  O3  UNL     1      -2.182  39.263  16.626  0.00  0.00    +0.000 OA
ATOM     18  H12 UNL     1      -3.107  39.076  16.316  0.00  0.00    +0.000 HD
ENDBRANCH   4  17
BRANCH   3  19
ATOM     19  O4  UNL     1       0.625  39.261  16.783  0.00  0.00    +0.000 OA
ATOM     20  H13 UNL     1       1.581  39.034  16.922  0.00  0.00    +0.000 HD
ENDBRANCH   3  19
BRANCH   2  21
ATOM     21  O5  UNL     1       1.602  36.901  16.060  0.00  0.00    +0.000 OA
ATOM     22  H14 UNL     1       1.100  36.725  15.223  0.00  0.00    +0.000 HD
ENDBRANCH   2  21
BRANCH   5  23
ATOM     23  C12 UNL     1      -3.414  37.227  17.947  0.00  0.00    +0.000 C 
BRANCH  23  24
ATOM     24  O2  UNL     1      -2.884  37.649  19.174  0.00  0.00    +0.000 OA
ATOM     25  H11 UNL     1      -3.239  37.024  19.858  0.00  0.00    +0.000 HD
ENDBRANCH  23  24
ENDBRANCH   5  23
TORSDOF 8
ENDMDL
MODEL 5
REMARK VINA RESULT:      -5.8      1.880      2.536
REMARK  Name = .\Catechins.pdb
REMARK  8 active torsions:
REMARK  status: ('A' for Active; 'I' for Inactive)
REMARK    1  A    between atoms: C3_3  and  O7_19
REMARK    2  A    between atoms: C4_4  and  O6_18
REMARK    3  A    between atoms: C6_6  and  C7_7
REMARK    4  A    between atoms: C8_8  and  O5_17
REMARK    5  A    between atoms: C9_9  and  O4_16
REMARK    6  A    between atoms: C10_10  and  O3_15
REMARK    7  A    between atoms: C11_11  and  C12_13
REMARK    8  A    between atoms: C12_13  and  O2_14
REMARK                            x       y       z     vdW  Elec       q    Type
REMARK                         _______ _______ _______ _____ _____    ______ ____
ROOT
ATOM      1  C7  UNL     1       0.603  35.110  16.899  0.00  0.00    +0.000 C 
ATOM      2  C8  UNL     1       0.847  34.684  18.370  0.00  0.00    +0.000 C 
ATOM      3  C9  UNL     1       2.053  33.712  18.482  0.00  0.00    +0.000 C 
ATOM      4  C10 UNL     1       2.195  32.881  17.195  0.00  0.00    +0.000 C 
ATOM      5  C11 UNL     1       2.319  33.824  15.948  0.00  0.00    +0.000 C 
ATOM      6  O1  UNL     1       1.833  35.140  16.198  0.00  0.00    +0.000 OA
ENDROOT
BRANCH   1  12
ATOM      7  C1  UNL     1       0.737  37.637  16.721  0.00  0.00    +0.000 A 
ATOM      8  C2  UNL     1       0.135  38.898  16.706  0.00  0.00    +0.000 A 
ATOM      9  C3  UNL     1      -1.256  39.017  16.828  0.00  0.00    +0.000 A 
ATOM     10  C4  UNL     1      -2.043  37.867  16.971  0.00  0.00    +0.000 A 
ATOM     11  C5  UNL     1      -1.438  36.602  16.985  0.00  0.00    +0.000 A 
ATOM     12  C6  UNL     1      -0.046  36.476  16.845  0.00  0.00    +0.000 A 
BRANCH  10  13
ATOM     13  O6  UNL     1      -3.426  37.990  17.100  0.00  0.00    +0.000 OA
ATOM     14  H15 UNL     1      -3.896  38.874  16.945  0.00  0.00    +0.000 HD
ENDBRANCH  10  13
BRANCH   9  15
ATOM     15  O7  UNL     1      -1.860  40.272  16.813  0.00  0.00    +0.000 OA
ATOM     16  H16 UNL     1      -1.375  41.091  16.464  0.00  0.00    +0.000 HD
ENDBRANCH   9  15
ENDBRANCH   1  12
BRANCH   4  17
ATOM     17  O3  UNL     1       3.297  32.011  17.297  0.00  0.00    +0.000 OA
ATOM     18  H12 UNL     1       4.116  32.568  17.235  0.00  0.00    +0.000 HD
ENDBRANCH   4  17
BRANCH   3  19
ATOM     19  O4  UNL     1       1.911  32.863  19.591  0.00  0.00    +0.000 OA
ATOM     20  H13 UNL     1       0.955  32.898  19.855  0.00  0.00    +0.000 HD
ENDBRANCH   3  19
BRANCH   2  21
ATOM     21  O5  UNL     1      -0.324  34.127  18.919  0.00  0.00    +0.000 OA
ATOM     22  H14 UNL     1      -0.064  33.312  19.421  0.00  0.00    +0.000 HD
ENDBRANCH   2  21
BRANCH   5  23
ATOM     23  C12 UNL     1       3.765  33.949  15.444  0.00  0.00    +0.000 C 
BRANCH  23  24
ATOM     24  O2  UNL     1       4.522  34.698  16.355  0.00  0.00    +0.000 OA
ATOM     25  H11 UNL     1       4.133  35.611  16.352  0.00  0.00    +0.000 HD
ENDBRANCH  23  24
ENDBRANCH   5  23
TORSDOF 8
ENDMDL
MODEL 6
REMARK VINA RESULT:      -5.7      1.893      2.553
REMARK  Name = .\Catechins.pdb
REMARK  8 active torsions:
REMARK  status: ('A' for Active; 'I' for Inactive)
REMARK    1  A    between atoms: C3_3  and  O7_19
REMARK    2  A    between atoms: C4_4  and  O6_18
REMARK    3  A    between atoms: C6_6  and  C7_7
REMARK    4  A    between atoms: C8_8  and  O5_17
REMARK    5  A    between atoms: C9_9  and  O4_16
REMARK    6  A    between atoms: C10_10  and  O3_15
REMARK    7  A    between atoms: C11_11  and  C12_13
REMARK    8  A    between atoms: C12_13  and  O2_14
REMARK                            x       y       z     vdW  Elec       q    Type
REMARK                         _______ _______ _______ _____ _____    ______ ____
ROOT
ATOM      1  C7  UNL     1       0.688  34.689  16.967  0.00  0.00    +0.000 C 
ATOM      2  C8  UNL     1       1.545  34.672  18.259  0.00  0.00    +0.000 C 
ATOM      3  C9  UNL     1       2.796  33.765  18.094  0.00  0.00    +0.000 C 
ATOM      4  C10 UNL     1       2.503  32.620  17.110  0.00  0.00    +0.000 C 
ATOM      5  C11 UNL     1       2.012  33.195  15.735  0.00  0.00    +0.000 C 
ATOM      6  O1  UNL     1       1.523  34.529  15.835  0.00  0.00    +0.000 OA
ENDROOT
BRANCH   1  12
ATOM      7  C1  UNL     1      -1.478  35.993  16.761  0.00  0.00    +0.000 A 
ATOM      8  C2  UNL     1      -2.176  37.196  16.624  0.00  0.00    +0.000 A 
ATOM      9  C3  UNL     1      -1.481  38.412  16.567  0.00  0.00    +0.000 A 
ATOM     10  C4  UNL     1      -0.082  38.418  16.643  0.00  0.00    +0.000 A 
ATOM     11  C5  UNL     1       0.617  37.211  16.781  0.00  0.00    +0.000 A 
ATOM     12  C6  UNL     1      -0.075  35.990  16.856  0.00  0.00    +0.000 A 
BRANCH  10  13
ATOM     13  O6  UNL     1       0.606  39.629  16.578  0.00  0.00    +0.000 OA
ATOM     14  H15 UNL     1       1.029  39.953  15.716  0.00  0.00    +0.000 HD
ENDBRANCH  10  13
BRANCH   9  15
ATOM     15  O7  UNL     1      -2.172  39.613  16.432  0.00  0.00    +0.000 OA
ATOM     16  H16 UNL     1      -1.835  40.355  15.828  0.00  0.00    +0.000 HD
ENDBRANCH   9  15
ENDBRANCH   1  12
BRANCH   4  17
ATOM     17  O3  UNL     1       3.642  31.809  16.955  0.00  0.00    +0.000 OA
ATOM     18  H12 UNL     1       3.948  31.912  16.016  0.00  0.00    +0.000 HD
ENDBRANCH   4  17
BRANCH   3  19
ATOM     19  O4  UNL     1       3.204  33.245  19.332  0.00  0.00    +0.000 OA
ATOM     20  H13 UNL     1       4.016  32.702  19.158  0.00  0.00    +0.000 HD
ENDBRANCH   3  19
BRANCH   2  21
ATOM     21  O5  UNL     1       0.761  34.283  19.363  0.00  0.00    +0.000 OA
ATOM     22  H14 UNL     1       0.831  34.996  20.048  0.00  0.00    +0.000 HD
ENDBRANCH   2  21
BRANCH   5  23
ATOM     23  C12 UNL     1       3.112  33.179  14.663  0.00  0.00    +0.000 C 
BRANCH  23  24
ATOM     24  O2  UNL     1       3.404  34.490  14.264  0.00  0.00    +0.000 OA
ATOM     25  H11 UNL     1       3.459  35.026  15.097  0.00  0.00    +0.000 HD
ENDBRANCH  23  24
ENDBRANCH   5  23
TORSDOF 8
ENDMDL
MODEL 7
REMARK VINA RESULT:      -5.6      1.927      5.938
REMARK  Name = .\Catechins.pdb
REMARK  8 active torsions:
REMARK  status: ('A' for Active; 'I' for Inactive)
REMARK    1  A    between atoms: C3_3  and  O7_19
REMARK    2  A    between atoms: C4_4  and  O6_18
REMARK    3  A    between atoms: C6_6  and  C7_7
REMARK    4  A    between atoms: C8_8  and  O5_17
REMARK    5  A    between atoms: C9_9  and  O4_16
REMARK    6  A    between atoms: C10_10  and  O3_15
REMARK    7  A    between atoms: C11_11  and  C12_13
REMARK    8  A    between atoms: C12_13  and  O2_14
REMARK                            x       y       z     vdW  Elec       q    Type
REMARK                         _______ _______ _______ _____ _____    ______ ____
ROOT
ATOM      1  C7  UNL     1      -0.282  35.464  17.006  0.00  0.00    +0.000 C 
ATOM      2  C8  UNL     1       0.702  36.657  17.128  0.00  0.00    +0.000 C 
ATOM      3  C9  UNL     1      -0.060  38.006  17.243  0.00  0.00    +0.000 C 
ATOM      4  C10 UNL     1      -1.404  37.930  16.499  0.00  0.00    +0.000 C 
ATOM      5  C11 UNL     1      -2.258  36.729  17.038  0.00  0.00    +0.000 C 
ATOM      6  O1  UNL     1      -1.474  35.751  17.715  0.00  0.00    +0.000 OA
ENDROOT
BRANCH   1  12
ATOM      7  C1  UNL     1       1.484  34.269  18.380  0.00  0.00    +0.000 A 
ATOM      8  C2  UNL     1       2.081  33.099  18.857  0.00  0.00    +0.000 A 
ATOM      9  C3  UNL     1       1.556  31.847  18.510  0.00  0.00    +0.000 A 
ATOM     10  C4  UNL     1       0.433  31.770  17.676  0.00  0.00    +0.000 A 
ATOM     11  C5  UNL     1      -0.166  32.944  17.197  0.00  0.00    +0.000 A 
ATOM     12  C6  UNL     1       0.346  34.203  17.557  0.00  0.00    +0.000 A 
BRANCH  10  13
ATOM     13  O6  UNL     1      -0.081  30.522  17.326  0.00  0.00    +0.000 OA
ATOM     14  H15 UNL     1       0.490  29.686  17.357  0.00  0.00    +0.000 HD
ENDBRANCH  10  13
BRANCH   9  15
ATOM     15  O7  UNL     1       2.147  30.679  18.985  0.00  0.00    +0.000 OA
ATOM     16  H16 UNL     1       2.409  29.924  18.360  0.00  0.00    +0.000 HD
ENDBRANCH   9  15
ENDBRANCH   1  12
BRANCH   4  17
ATOM     17  O3  UNL     1      -2.096  39.149  16.618  0.00  0.00    +0.000 OA
ATOM     18  H12 UNL     1      -1.907  39.506  17.525  0.00  0.00    +0.000 HD
ENDBRANCH   4  17
BRANCH   3  19
ATOM     19  O4  UNL     1       0.713  39.063  16.736  0.00  0.00    +0.000 OA
ATOM     20  H13 UNL     1       1.470  38.650  16.246  0.00  0.00    +0.000 HD
ENDBRANCH   3  19
BRANCH   2  21
ATOM     21  O5  UNL     1       1.605  36.659  16.047  0.00  0.00    +0.000 OA
ATOM     22  H14 UNL     1       1.452  37.491  15.528  0.00  0.00    +0.000 HD
ENDBRANCH   2  21
BRANCH   5  23
ATOM     23  C12 UNL     1      -3.371  37.179  17.995  0.00  0.00    +0.000 C 
BRANCH  23  24
ATOM     24  O2  UNL     1      -2.835  37.418  19.268  0.00  0.00    +0.000 OA
ATOM     25  H11 UNL     1      -1.918  37.766  19.120  0.00  0.00    +0.000 HD
ENDBRANCH  23  24
ENDBRANCH   5  23
TORSDOF 8
ENDMDL
MODEL 8
REMARK VINA RESULT:      -5.3      1.339      3.222
REMARK  Name = .\Catechins.pdb
REMARK  8 active torsions:
REMARK  status: ('A' for Active; 'I' for Inactive)
REMARK    1  A    between atoms: C3_3  and  O7_19
REMARK    2  A    between atoms: C4_4  and  O6_18
REMARK    3  A    between atoms: C6_6  and  C7_7
REMARK    4  A    between atoms: C8_8  and  O5_17
REMARK    5  A    between atoms: C9_9  and  O4_16
REMARK    6  A    between atoms: C10_10  and  O3_15
REMARK    7  A    between atoms: C11_11  and  C12_13
REMARK    8  A    between atoms: C12_13  and  O2_14
REMARK                            x       y       z     vdW  Elec       q    Type
REMARK                         _______ _______ _______ _____ _____    ______ ____
ROOT
ATOM      1  C7  UNL     1       0.597  34.820  16.838  0.00  0.00    +0.000 C 
ATOM      2  C8  UNL     1      -0.445  33.700  17.098  0.00  0.00    +0.000 C 
ATOM      3  C9  UNL     1       0.236  32.414  17.641  0.00  0.00    +0.000 C 
ATOM      4  C10 UNL     1       1.672  32.297  17.102  0.00  0.00    +0.000 C 
ATOM      5  C11 UNL     1       2.493  33.586  17.455  0.00  0.00    +0.000 C 
ATOM      6  O1  UNL     1       1.666  34.705  17.759  0.00  0.00    +0.000 OA
ENDROOT
BRANCH   1  12
ATOM      7  C1  UNL     1      -1.412  36.302  17.290  0.00  0.00    +0.000 A 
ATOM      8  C2  UNL     1      -2.010  37.562  17.381  0.00  0.00    +0.000 A 
ATOM      9  C3  UNL     1      -1.255  38.719  17.146  0.00  0.00    +0.000 A 
ATOM     10  C4  UNL     1       0.101  38.610  16.813  0.00  0.00    +0.000 A 
ATOM     11  C5  UNL     1       0.701  37.345  16.723  0.00  0.00    +0.000 A 
ATOM     12  C6  UNL     1      -0.047  36.182  16.974  0.00  0.00    +0.000 A 
BRANCH  10  13
ATOM     13  O6  UNL     1       0.847  39.763  16.573  0.00  0.00    +0.000 OA
ATOM     14  H15 UNL     1       1.851  39.728  16.446  0.00  0.00    +0.000 HD
ENDBRANCH  10  13
BRANCH   9  15
ATOM     15  O7  UNL     1      -1.846  39.977  17.237  0.00  0.00    +0.000 OA
ATOM     16  H16 UNL     1      -1.520  40.671  17.899  0.00  0.00    +0.000 HD
ENDBRANCH   9  15
ENDBRANCH   1  12
BRANCH   4  17
ATOM     17  O3  UNL     1       2.288  31.137  17.607  0.00  0.00    +0.000 OA
ATOM     18  H12 UNL     1       1.746  30.362  17.305  0.00  0.00    +0.000 HD
ENDBRANCH   4  17
BRANCH   3  19
ATOM     19  O4  UNL     1      -0.504  31.272  17.295  0.00  0.00    +0.000 OA
ATOM     20  H13 UNL     1      -0.103  30.916  16.460  0.00  0.00    +0.000 HD
ENDBRANCH   3  19
BRANCH   2  21
ATOM     21  O5  UNL     1      -1.189  33.443  15.930  0.00  0.00    +0.000 OA
ATOM     22  H14 UNL     1      -2.127  33.715  16.105  0.00  0.00    +0.000 HD
ENDBRANCH   2  21
BRANCH   5  23
ATOM     23  C12 UNL     1       3.444  33.372  18.643  0.00  0.00    +0.000 C 
BRANCH  23  24
ATOM     24  O2  UNL     1       3.670  34.592  19.295  0.00  0.00    +0.000 OA
ATOM     25  H11 UNL     1       3.454  34.438  20.251  0.00  0.00    +0.000 HD
ENDBRANCH  23  24
ENDBRANCH   5  23
TORSDOF 8
ENDMDL
MODEL 9
REMARK VINA RESULT:      -5.2      2.072      2.544
REMARK  Name = .\Catechins.pdb
REMARK  8 active torsions:
REMARK  status: ('A' for Active; 'I' for Inactive)
REMARK    1  A    between atoms: C3_3  and  O7_19
REMARK    2  A    between atoms: C4_4  and  O6_18
REMARK    3  A    between atoms: C6_6  and  C7_7
REMARK    4  A    between atoms: C8_8  and  O5_17
REMARK    5  A    between atoms: C9_9  and  O4_16
REMARK    6  A    between atoms: C10_10  and  O3_15
REMARK    7  A    between atoms: C11_11  and  C12_13
REMARK    8  A    between atoms: C12_13  and  O2_14
REMARK                            x       y       z     vdW  Elec       q    Type
REMARK                         _______ _______ _______ _____ _____    ______ ____
ROOT
ATOM      1  C7  UNL     1       1.886  35.540  17.506  0.00  0.00    +0.000 C 
ATOM      2  C8  UNL     1       2.344  35.166  16.072  0.00  0.00    +0.000 C 
ATOM      3  C9  UNL     1       2.969  33.744  16.034  0.00  0.00    +0.000 C 
ATOM      4  C10 UNL     1       3.632  33.412  17.381  0.00  0.00    +0.000 C 
ATOM      5  C11 UNL     1       2.597  33.563  18.550  0.00  0.00    +0.000 C 
ATOM      6  O1  UNL     1       1.479  34.374  18.199  0.00  0.00    +0.000 OA
ENDROOT
BRANCH   1  12
ATOM      7  C1  UNL     1       0.803  37.654  16.617  0.00  0.00    +0.000 A 
ATOM      8  C2  UNL     1      -0.244  38.580  16.598  0.00  0.00    +0.000 A 
ATOM      9  C3  UNL     1      -1.362  38.398  17.424  0.00  0.00    +0.000 A 
ATOM     10  C4  UNL     1      -1.426  37.287  18.274  0.00  0.00    +0.000 A 
ATOM     11  C5  UNL     1      -0.375  36.358  18.292  0.00  0.00    +0.000 A 
ATOM     12  C6  UNL     1       0.740  36.526  17.453  0.00  0.00    +0.000 A 
BRANCH  10  13
ATOM     13  O6  UNL     1      -2.535  37.114  19.099  0.00  0.00    +0.000 OA
ATOM     14  H15 UNL     1      -3.474  37.312  18.773  0.00  0.00    +0.000 HD
ENDBRANCH  10  13
BRANCH   9  15
ATOM     15  O7  UNL     1      -2.407  39.318  17.407  0.00  0.00    +0.000 OA
ATOM     16  H16 UNL     1      -3.346  39.050  17.136  0.00  0.00    +0.000 HD
ENDBRANCH   9  15
ENDBRANCH   1  12
BRANCH   4  17
ATOM     17  O3  UNL     1       4.185  32.118  17.345  0.00  0.00    +0.000 OA
ATOM     18  H12 UNL     1       4.263  31.859  16.390  0.00  0.00    +0.000 HD
ENDBRANCH   4  17
BRANCH   3  19
ATOM     19  O4  UNL     1       3.908  33.637  14.995  0.00  0.00    +0.000 OA
ATOM     20  H13 UNL     1       3.427  33.254  14.216  0.00  0.00    +0.000 HD
ENDBRANCH   3  19
BRANCH   2  21
ATOM     21  O5  UNL     1       3.231  36.138  15.571  0.00  0.00    +0.000 OA
ATOM     22  H14 UNL     1       4.121  35.971  15.976  0.00  0.00    +0.000 HD
ENDBRANCH   2  21
BRANCH   5  23
ATOM     23  C12 UNL     1       2.057  32.211  19.039  0.00  0.00    +0.000 C 
BRANCH  23  24
ATOM     24  O2  UNL     1       2.168  32.131  20.433  0.00  0.00    +0.000 OA
ATOM     25  H11 UNL     1       1.827  31.235  20.687  0.00  0.00    +0.000 HD
ENDBRANCH  23  24
ENDBRANCH   5  23
TORSDOF 8
ENDMDL
