MODEL 1
REMARK VINA RESULT:      -4.1      0.000      0.000
REMARK  Name = .\Catechins.pdb
REMARK  8 active torsions:
REMARK  status: ('A' for Active; 'I' for Inactive)
REMARK    1  A    between atoms: C3_3  and  O7_19
REMARK    2  A    between atoms: C4_4  and  O6_18
REMARK    3  A    between atoms: C6_6  and  C7_7
REMARK    4  A    between atoms: C8_8  and  O5_17
REMARK    5  A    between atoms: C9_9  and  O4_16
REMARK    6  A    between atoms: C10_10  and  O3_15
REMARK    7  A    between atoms: C11_11  and  C12_13
REMARK    8  A    between atoms: C12_13  and  O2_14
REMARK                            x       y       z     vdW  Elec       q    Type
REMARK                         _______ _______ _______ _____ _____    ______ ____
ROOT
ATOM      1  C7  UNL     1     -21.084  73.676  95.598  0.00  0.00    +0.000 C 
ATOM      2  C8  UNL     1     -21.516  72.200  95.802  0.00  0.00    +0.000 C 
ATOM      3  C9  UNL     1     -22.753  72.099  96.735  0.00  0.00    +0.000 C 
ATOM      4  C10 UNL     1     -22.761  73.260  97.745  0.00  0.00    +0.000 C 
ATOM      5  C11 UNL     1     -22.707  74.636  96.993  0.00  0.00    +0.000 C 
ATOM      6  O1  UNL     1     -22.219  74.521  95.660  0.00  0.00    +0.000 OA
ENDROOT
BRANCH   1  12
ATOM      7  C1  UNL     1     -19.553  74.945  94.023  0.00  0.00    +0.000 A 
ATOM      8  C2  UNL     1     -18.948  75.115  92.775  0.00  0.00    +0.000 A 
ATOM      9  C3  UNL     1     -19.186  74.196  91.744  0.00  0.00    +0.000 A 
ATOM     10  C4  UNL     1     -20.039  73.108  91.966  0.00  0.00    +0.000 A 
ATOM     11  C5  UNL     1     -20.646  72.937  93.218  0.00  0.00    +0.000 A 
ATOM     12  C6  UNL     1     -20.397  73.846  94.261  0.00  0.00    +0.000 A 
BRANCH  10  13
ATOM     13  O6  UNL     1     -20.281  72.201  90.935  0.00  0.00    +0.000 OA
ATOM     14  H15 UNL     1     -20.885  71.398  91.066  0.00  0.00    +0.000 HD
ENDBRANCH  10  13
BRANCH   9  15
ATOM     15  O7  UNL     1     -18.584  74.362  90.499  0.00  0.00    +0.000 OA
ATOM     16  H16 UNL     1     -19.054  74.092  89.642  0.00  0.00    +0.000 HD
ENDBRANCH   9  15
ENDBRANCH   1  12
BRANCH   4  17
ATOM     17  O3  UNL     1     -23.890  73.171  98.580  0.00  0.00    +0.000 OA
ATOM     18  H12 UNL     1     -23.717  72.441  99.230  0.00  0.00    +0.000 HD
ENDBRANCH   4  17
BRANCH   3  19
ATOM     19  O4  UNL     1     -22.770  70.870  97.414  0.00  0.00    +0.000 OA
ATOM     20  H13 UNL     1     -22.777  70.162  96.719  0.00  0.00    +0.000 HD
ENDBRANCH   3  19
BRANCH   2  21
ATOM     21  O5  UNL     1     -20.435  71.436  96.283  0.00  0.00    +0.000 OA
ATOM     22  H14 UNL     1     -20.654  70.479  96.137  0.00  0.00    +0.000 HD
ENDBRANCH   2  21
BRANCH   5  23
ATOM     23  C12 UNL     1     -24.078  75.327  96.930  0.00  0.00    +0.000 C 
BRANCH  23  24
ATOM     24  O2  UNL     1     -24.929  74.616  96.074  0.00  0.00    +0.000 OA
ATOM     25  H11 UNL     1     -24.836  75.038  95.180  0.00  0.00    +0.000 HD
ENDBRANCH  23  24
ENDBRANCH   5  23
TORSDOF 8
ENDMDL
MODEL 2
REMARK VINA RESULT:      -3.7      1.768      6.234
REMARK  Name = .\Catechins.pdb
REMARK  8 active torsions:
REMARK  status: ('A' for Active; 'I' for Inactive)
REMARK    1  A    between atoms: C3_3  and  O7_19
REMARK    2  A    between atoms: C4_4  and  O6_18
REMARK    3  A    between atoms: C6_6  and  C7_7
REMARK    4  A    between atoms: C8_8  and  O5_17
REMARK    5  A    between atoms: C9_9  and  O4_16
REMARK    6  A    between atoms: C10_10  and  O3_15
REMARK    7  A    between atoms: C11_11  and  C12_13
REMARK    8  A    between atoms: C12_13  and  O2_14
REMARK                            x       y       z     vdW  Elec       q    Type
REMARK                         _______ _______ _______ _____ _____    ______ ____
ROOT
ATOM      1  C7  UNL     1     -20.597  73.028  93.933  0.00  0.00    +0.000 C 
ATOM      2  C8  UNL     1     -20.511  74.577  93.925  0.00  0.00    +0.000 C 
ATOM      3  C9  UNL     1     -19.969  75.103  92.567  0.00  0.00    +0.000 C 
ATOM      4  C10 UNL     1     -19.016  74.076  91.933  0.00  0.00    +0.000 C 
ATOM      5  C11 UNL     1     -19.735  72.690  91.778  0.00  0.00    +0.000 C 
ATOM      6  O1  UNL     1     -20.871  72.556  92.626  0.00  0.00    +0.000 OA
ENDROOT
BRANCH   1  12
ATOM      7  C1  UNL     1     -22.857  73.319  95.048  0.00  0.00    +0.000 A 
ATOM      8  C2  UNL     1     -23.841  72.905  95.949  0.00  0.00    +0.000 A 
ATOM      9  C3  UNL     1     -23.661  71.736  96.702  0.00  0.00    +0.000 A 
ATOM     10  C4  UNL     1     -22.487  70.987  96.554  0.00  0.00    +0.000 A 
ATOM     11  C5  UNL     1     -21.499  71.404  95.649  0.00  0.00    +0.000 A 
ATOM     12  C6  UNL     1     -21.683  72.565  94.879  0.00  0.00    +0.000 A 
BRANCH  10  13
ATOM     13  O6  UNL     1     -22.307  69.831  97.311  0.00  0.00    +0.000 OA
ATOM     14  H15 UNL     1     -23.088  69.235  97.561  0.00  0.00    +0.000 HD
ENDBRANCH  10  13
BRANCH   9  15
ATOM     15  O7  UNL     1     -24.640  71.319  97.601  0.00  0.00    +0.000 OA
ATOM     16  H16 UNL     1     -25.585  71.111  97.298  0.00  0.00    +0.000 HD
ENDBRANCH   9  15
ENDBRANCH   1  12
BRANCH   4  17
ATOM     17  O3  UNL     1     -18.539  74.553  90.699  0.00  0.00    +0.000 OA
ATOM     18  H12 UNL     1     -18.508  73.778  90.078  0.00  0.00    +0.000 HD
ENDBRANCH   4  17
BRANCH   3  19
ATOM     19  O4  UNL     1     -19.312  76.333  92.733  0.00  0.00    +0.000 OA
ATOM     20  H13 UNL     1     -18.409  76.126  93.089  0.00  0.00    +0.000 HD
ENDBRANCH   3  19
BRANCH   2  21
ATOM     21  O5  UNL     1     -19.732  75.030  95.008  0.00  0.00    +0.000 OA
ATOM     22  H14 UNL     1     -18.858  75.328  94.646  0.00  0.00    +0.000 HD
ENDBRANCH   2  21
BRANCH   5  23
ATOM     23  C12 UNL     1     -20.194  72.423  90.336  0.00  0.00    +0.000 C 
BRANCH  23  24
ATOM     24  O2  UNL     1     -21.379  71.675  90.347  0.00  0.00    +0.000 OA
ATOM     25  H11 UNL     1     -21.669  71.604  89.401  0.00  0.00    +0.000 HD
ENDBRANCH  23  24
ENDBRANCH   5  23
TORSDOF 8
ENDMDL
MODEL 3
REMARK VINA RESULT:      -3.7      2.000      3.110
REMARK  Name = .\Catechins.pdb
REMARK  8 active torsions:
REMARK  status: ('A' for Active; 'I' for Inactive)
REMARK    1  A    between atoms: C3_3  and  O7_19
REMARK    2  A    between atoms: C4_4  and  O6_18
REMARK    3  A    between atoms: C6_6  and  C7_7
REMARK    4  A    between atoms: C8_8  and  O5_17
REMARK    5  A    between atoms: C9_9  and  O4_16
REMARK    6  A    between atoms: C10_10  and  O3_15
REMARK    7  A    between atoms: C11_11  and  C12_13
REMARK    8  A    between atoms: C12_13  and  O2_14
REMARK                            x       y       z     vdW  Elec       q    Type
REMARK                         _______ _______ _______ _____ _____    ______ ____
ROOT
ATOM      1  C7  UNL     1     -21.223  74.768  94.836  0.00  0.00    +0.000 C 
ATOM      2  C8  UNL     1     -20.562  75.273  96.147  0.00  0.00    +0.000 C 
ATOM      3  C9  UNL     1     -20.900  74.340  97.342  0.00  0.00    +0.000 C 
ATOM      4  C10 UNL     1     -22.277  73.684  97.140  0.00  0.00    +0.000 C 
ATOM      5  C11 UNL     1     -22.320  72.918  95.772  0.00  0.00    +0.000 C 
ATOM      6  O1  UNL     1     -21.317  73.355  94.860  0.00  0.00    +0.000 OA
ENDROOT
BRANCH   1  12
ATOM      7  C1  UNL     1     -19.022  75.006  93.598  0.00  0.00    +0.000 A 
ATOM      8  C2  UNL     1     -18.274  75.442  92.501  0.00  0.00    +0.000 A 
ATOM      9  C3  UNL     1     -18.904  76.092  91.431  0.00  0.00    +0.000 A 
ATOM     10  C4  UNL     1     -20.287  76.310  91.467  0.00  0.00    +0.000 A 
ATOM     11  C5  UNL     1     -21.037  75.872  92.568  0.00  0.00    +0.000 A 
ATOM     12  C6  UNL     1     -20.413  75.204  93.635  0.00  0.00    +0.000 A 
BRANCH  10  13
ATOM     13  O6  UNL     1     -20.909  76.964  90.404  0.00  0.00    +0.000 OA
ATOM     14  H15 UNL     1     -20.881  76.592  89.463  0.00  0.00    +0.000 HD
ENDBRANCH  10  13
BRANCH   9  15
ATOM     15  O7  UNL     1     -18.162  76.527  90.335  0.00  0.00    +0.000 OA
ATOM     16  H16 UNL     1     -17.192  76.263  90.213  0.00  0.00    +0.000 HD
ENDBRANCH   9  15
ENDBRANCH   1  12
BRANCH   4  17
ATOM     17  O3  UNL     1     -22.572  72.831  98.220  0.00  0.00    +0.000 OA
ATOM     18  H12 UNL     1     -23.278  73.274  98.759  0.00  0.00    +0.000 HD
ENDBRANCH   4  17
BRANCH   3  19
ATOM     19  O4  UNL     1     -20.877  75.050  98.553  0.00  0.00    +0.000 OA
ATOM     20  H13 UNL     1     -19.923  75.230  98.759  0.00  0.00    +0.000 HD
ENDBRANCH   3  19
BRANCH   2  21
ATOM     21  O5  UNL     1     -20.937  76.605  96.403  0.00  0.00    +0.000 OA
ATOM     22  H14 UNL     1     -20.252  77.195  95.995  0.00  0.00    +0.000 HD
ENDBRANCH   2  21
BRANCH   5  23
ATOM     23  C12 UNL     1     -22.165  71.399  95.941  0.00  0.00    +0.000 C 
BRANCH  23  24
ATOM     24  O2  UNL     1     -21.002  71.118  96.669  0.00  0.00    +0.000 OA
ATOM     25  H11 UNL     1     -20.248  71.206  96.029  0.00  0.00    +0.000 HD
ENDBRANCH  23  24
ENDBRANCH   5  23
TORSDOF 8
ENDMDL
MODEL 4
REMARK VINA RESULT:      -3.5      1.868      5.840
REMARK  Name = .\Catechins.pdb
REMARK  8 active torsions:
REMARK  status: ('A' for Active; 'I' for Inactive)
REMARK    1  A    between atoms: C3_3  and  O7_19
REMARK    2  A    between atoms: C4_4  and  O6_18
REMARK    3  A    between atoms: C6_6  and  C7_7
REMARK    4  A    between atoms: C8_8  and  O5_17
REMARK    5  A    between atoms: C9_9  and  O4_16
REMARK    6  A    between atoms: C10_10  and  O3_15
REMARK    7  A    between atoms: C11_11  and  C12_13
REMARK    8  A    between atoms: C12_13  and  O2_14
REMARK                            x       y       z     vdW  Elec       q    Type
REMARK                         _______ _______ _______ _____ _____    ______ ____
ROOT
ATOM      1  C7  UNL     1     -21.560  73.169  93.420  0.00  0.00    +0.000 C 
ATOM      2  C8  UNL     1     -20.058  72.801  93.298  0.00  0.00    +0.000 C 
ATOM      3  C9  UNL     1     -19.325  73.748  92.309  0.00  0.00    +0.000 C 
ATOM      4  C10 UNL     1     -20.293  74.243  91.221  0.00  0.00    +0.000 C 
ATOM      5  C11 UNL     1     -21.541  74.934  91.875  0.00  0.00    +0.000 C 
ATOM      6  O1  UNL     1     -21.729  74.563  93.238  0.00  0.00    +0.000 OA
ENDROOT
BRANCH   1  12
ATOM      7  C1  UNL     1     -22.342  73.732  95.766  0.00  0.00    +0.000 A 
ATOM      8  C2  UNL     1     -22.803  73.351  97.029  0.00  0.00    +0.000 A 
ATOM      9  C3  UNL     1     -23.011  71.996  97.324  0.00  0.00    +0.000 A 
ATOM     10  C4  UNL     1     -22.750  71.024  96.351  0.00  0.00    +0.000 A 
ATOM     11  C5  UNL     1     -22.288  71.408  95.084  0.00  0.00    +0.000 A 
ATOM     12  C6  UNL     1     -22.094  72.765  94.776  0.00  0.00    +0.000 A 
BRANCH  10  13
ATOM     13  O6  UNL     1     -22.950  69.677  96.651  0.00  0.00    +0.000 OA
ATOM     14  H15 UNL     1     -22.371  69.193  97.327  0.00  0.00    +0.000 HD
ENDBRANCH  10  13
BRANCH   9  15
ATOM     15  O7  UNL     1     -23.471  71.612  98.582  0.00  0.00    +0.000 OA
ATOM     16  H16 UNL     1     -23.058  70.833  99.083  0.00  0.00    +0.000 HD
ENDBRANCH   9  15
ENDBRANCH   1  12
BRANCH   4  17
ATOM     17  O3  UNL     1     -19.628  75.110  90.335  0.00  0.00    +0.000 OA
ATOM     18  H12 UNL     1     -19.861  74.823  89.414  0.00  0.00    +0.000 HD
ENDBRANCH   4  17
BRANCH   3  19
ATOM     19  O4  UNL     1     -18.226  73.103  91.719  0.00  0.00    +0.000 OA
ATOM     20  H13 UNL     1     -17.471  73.746  91.747  0.00  0.00    +0.000 HD
ENDBRANCH   3  19
BRANCH   2  21
ATOM     21  O5  UNL     1     -19.913  71.449  92.931  0.00  0.00    +0.000 OA
ATOM     22  H14 UNL     1     -20.300  71.340  92.024  0.00  0.00    +0.000 HD
ENDBRANCH   2  21
BRANCH   5  23
ATOM     23  C12 UNL     1     -21.464  76.467  91.816  0.00  0.00    +0.000 C 
BRANCH  23  24
ATOM     24  O2  UNL     1     -20.437  76.924  92.652  0.00  0.00    +0.000 OA
ATOM     25  H11 UNL     1     -20.519  77.913  92.675  0.00  0.00    +0.000 HD
ENDBRANCH  23  24
ENDBRANCH   5  23
TORSDOF 8
ENDMDL
MODEL 5
REMARK VINA RESULT:      -3.5      1.420      3.065
REMARK  Name = .\Catechins.pdb
REMARK  8 active torsions:
REMARK  status: ('A' for Active; 'I' for Inactive)
REMARK    1  A    between atoms: C3_3  and  O7_19
REMARK    2  A    between atoms: C4_4  and  O6_18
REMARK    3  A    between atoms: C6_6  and  C7_7
REMARK    4  A    between atoms: C8_8  and  O5_17
REMARK    5  A    between atoms: C9_9  and  O4_16
REMARK    6  A    between atoms: C10_10  and  O3_15
REMARK    7  A    between atoms: C11_11  and  C12_13
REMARK    8  A    between atoms: C12_13  and  O2_14
REMARK                            x       y       z     vdW  Elec       q    Type
REMARK                         _______ _______ _______ _____ _____    ______ ____
ROOT
ATOM      1  C7  UNL     1     -22.418  72.965  94.954  0.00  0.00    +0.000 C 
ATOM      2  C8  UNL     1     -22.281  74.006  96.096  0.00  0.00    +0.000 C 
ATOM      3  C9  UNL     1     -22.688  73.395  97.466  0.00  0.00    +0.000 C 
ATOM      4  C10 UNL     1     -23.752  72.302  97.272  0.00  0.00    +0.000 C 
ATOM      5  C11 UNL     1     -23.234  71.207  96.275  0.00  0.00    +0.000 C 
ATOM      6  O1  UNL     1     -22.163  71.666  95.456  0.00  0.00    +0.000 OA
ENDROOT
BRANCH   1  12
ATOM      7  C1  UNL     1     -21.676  72.798  92.534  0.00  0.00    +0.000 A 
ATOM      8  C2  UNL     1     -20.759  73.061  91.513  0.00  0.00    +0.000 A 
ATOM      9  C3  UNL     1     -19.596  73.796  91.781  0.00  0.00    +0.000 A 
ATOM     10  C4  UNL     1     -19.351  74.262  93.078  0.00  0.00    +0.000 A 
ATOM     11  C5  UNL     1     -20.271  73.999  94.103  0.00  0.00    +0.000 A 
ATOM     12  C6  UNL     1     -21.448  73.278  93.836  0.00  0.00    +0.000 A 
BRANCH  10  13
ATOM     13  O6  UNL     1     -18.189  74.986  93.343  0.00  0.00    +0.000 OA
ATOM     14  H15 UNL     1     -17.755  75.568  92.636  0.00  0.00    +0.000 HD
ENDBRANCH  10  13
BRANCH   9  15
ATOM     15  O7  UNL     1     -18.680  74.060  90.765  0.00  0.00    +0.000 OA
ATOM     16  H16 UNL     1     -17.737  74.371  90.969  0.00  0.00    +0.000 HD
ENDBRANCH   9  15
ENDBRANCH   1  12
BRANCH   4  17
ATOM     17  O3  UNL     1     -24.108  71.744  98.514  0.00  0.00    +0.000 OA
ATOM     18  H12 UNL     1     -24.496  70.849  98.332  0.00  0.00    +0.000 HD
ENDBRANCH   4  17
BRANCH   3  19
ATOM     19  O4  UNL     1     -23.169  74.389  98.334  0.00  0.00    +0.000 OA
ATOM     20  H13 UNL     1     -23.562  73.918  99.114  0.00  0.00    +0.000 HD
ENDBRANCH   3  19
BRANCH   2  21
ATOM     21  O5  UNL     1     -23.029  75.162  95.798  0.00  0.00    +0.000 OA
ATOM     22  H14 UNL     1     -22.406  75.934  95.808  0.00  0.00    +0.000 HD
ENDBRANCH   2  21
BRANCH   5  23
ATOM     23  C12 UNL     1     -22.761  69.934  96.992  0.00  0.00    +0.000 C 
BRANCH  23  24
ATOM     24  O2  UNL     1     -23.776  68.968  96.961  0.00  0.00    +0.000 OA
ATOM     25  H11 UNL     1     -24.039  68.874  96.009  0.00  0.00    +0.000 HD
ENDBRANCH  23  24
ENDBRANCH   5  23
TORSDOF 8
ENDMDL
MODEL 6
REMARK VINA RESULT:      -3.4      1.765      2.156
REMARK  Name = .\Catechins.pdb
REMARK  8 active torsions:
REMARK  status: ('A' for Active; 'I' for Inactive)
REMARK    1  A    between atoms: C3_3  and  O7_19
REMARK    2  A    between atoms: C4_4  and  O6_18
REMARK    3  A    between atoms: C6_6  and  C7_7
REMARK    4  A    between atoms: C8_8  and  O5_17
REMARK    5  A    between atoms: C9_9  and  O4_16
REMARK    6  A    between atoms: C10_10  and  O3_15
REMARK    7  A    between atoms: C11_11  and  C12_13
REMARK    8  A    between atoms: C12_13  and  O2_14
REMARK                            x       y       z     vdW  Elec       q    Type
REMARK                         _______ _______ _______ _____ _____    ______ ____
ROOT
ATOM      1  C7  UNL     1     -20.464  73.959  94.735  0.00  0.00    +0.000 C 
ATOM      2  C8  UNL     1     -21.230  72.700  94.251  0.00  0.00    +0.000 C 
ATOM      3  C9  UNL     1     -22.250  72.217  95.318  0.00  0.00    +0.000 C 
ATOM      4  C10 UNL     1     -21.755  72.566  96.732  0.00  0.00    +0.000 C 
ATOM      5  C11 UNL     1     -21.475  74.105  96.847  0.00  0.00    +0.000 C 
ATOM      6  O1  UNL     1     -21.297  74.732  95.580  0.00  0.00    +0.000 OA
ENDROOT
BRANCH   1  12
ATOM      7  C1  UNL     1     -18.655  74.974  93.276  0.00  0.00    +0.000 A 
ATOM      8  C2  UNL     1     -18.250  75.775  92.205  0.00  0.00    +0.000 A 
ATOM      9  C3  UNL     1     -19.205  76.417  91.404  0.00  0.00    +0.000 A 
ATOM     10  C4  UNL     1     -20.569  76.259  91.685  0.00  0.00    +0.000 A 
ATOM     11  C5  UNL     1     -20.973  75.455  92.760  0.00  0.00    +0.000 A 
ATOM     12  C6  UNL     1     -20.021  74.794  93.555  0.00  0.00    +0.000 A 
BRANCH  10  13
ATOM     13  O6  UNL     1     -21.515  76.906  90.892  0.00  0.00    +0.000 OA
ATOM     14  H15 UNL     1     -22.454  77.084  91.227  0.00  0.00    +0.000 HD
ENDBRANCH  10  13
BRANCH   9  15
ATOM     15  O7  UNL     1     -18.807  77.216  90.335  0.00  0.00    +0.000 OA
ATOM     16  H16 UNL     1     -17.846  77.231  90.013  0.00  0.00    +0.000 HD
ENDBRANCH   9  15
ENDBRANCH   1  12
BRANCH   4  17
ATOM     17  O3  UNL     1     -22.688  72.137  97.694  0.00  0.00    +0.000 OA
ATOM     18  H12 UNL     1     -22.200  71.562  98.339  0.00  0.00    +0.000 HD
ENDBRANCH   4  17
BRANCH   3  19
ATOM     19  O4  UNL     1     -22.469  70.834  95.212  0.00  0.00    +0.000 OA
ATOM     20  H13 UNL     1     -22.142  70.429  96.057  0.00  0.00    +0.000 HD
ENDBRANCH   3  19
BRANCH   2  21
ATOM     21  O5  UNL     1     -20.325  71.682  93.895  0.00  0.00    +0.000 OA
ATOM     22  H14 UNL     1     -19.410  72.009  94.094  0.00  0.00    +0.000 HD
ENDBRANCH   2  21
BRANCH   5  23
ATOM     23  C12 UNL     1     -22.595  74.854  97.584  0.00  0.00    +0.000 C 
BRANCH  23  24
ATOM     24  O2  UNL     1     -23.769  74.826  96.819  0.00  0.00    +0.000 OA
ATOM     25  H11 UNL     1     -23.597  75.401  96.029  0.00  0.00    +0.000 HD
ENDBRANCH  23  24
ENDBRANCH   5  23
TORSDOF 8
ENDMDL
MODEL 7
REMARK VINA RESULT:      -3.4      1.676      6.286
REMARK  Name = .\Catechins.pdb
REMARK  8 active torsions:
REMARK  status: ('A' for Active; 'I' for Inactive)
REMARK    1  A    between atoms: C3_3  and  O7_19
REMARK    2  A    between atoms: C4_4  and  O6_18
REMARK    3  A    between atoms: C6_6  and  C7_7
REMARK    4  A    between atoms: C8_8  and  O5_17
REMARK    5  A    between atoms: C9_9  and  O4_16
REMARK    6  A    between atoms: C10_10  and  O3_15
REMARK    7  A    between atoms: C11_11  and  C12_13
REMARK    8  A    between atoms: C12_13  and  O2_14
REMARK                            x       y       z     vdW  Elec       q    Type
REMARK                         _______ _______ _______ _____ _____    ______ ____
ROOT
ATOM      1  C7  UNL     1     -20.489  73.087  93.925  0.00  0.00    +0.000 C 
ATOM      2  C8  UNL     1     -20.456  74.637  93.873  0.00  0.00    +0.000 C 
ATOM      3  C9  UNL     1     -19.976  75.143  92.485  0.00  0.00    +0.000 C 
ATOM      4  C10 UNL     1     -19.007  74.131  91.850  0.00  0.00    +0.000 C 
ATOM      5  C11 UNL     1     -19.682  72.718  91.754  0.00  0.00    +0.000 C 
ATOM      6  O1  UNL     1     -20.786  72.569  92.641  0.00  0.00    +0.000 OA
ENDROOT
BRANCH   1  12
ATOM      7  C1  UNL     1     -21.467  71.316  95.455  0.00  0.00    +0.000 A 
ATOM      8  C2  UNL     1     -22.449  70.871  96.345  0.00  0.00    +0.000 A 
ATOM      9  C3  UNL     1     -23.512  71.714  96.700  0.00  0.00    +0.000 A 
ATOM     10  C4  UNL     1     -23.591  73.002  96.156  0.00  0.00    +0.000 A 
ATOM     11  C5  UNL     1     -22.605  73.447  95.264  0.00  0.00    +0.000 A 
ATOM     12  C6  UNL     1     -21.528  72.613  94.917  0.00  0.00    +0.000 A 
BRANCH  10  13
ATOM     13  O6  UNL     1     -24.654  73.833  96.506  0.00  0.00    +0.000 OA
ATOM     14  H15 UNL     1     -24.566  74.525  97.242  0.00  0.00    +0.000 HD
ENDBRANCH  10  13
BRANCH   9  15
ATOM     15  O7  UNL     1     -24.492  71.275  97.587  0.00  0.00    +0.000 OA
ATOM     16  H16 UNL     1     -24.812  70.313  97.592  0.00  0.00    +0.000 HD
ENDBRANCH   9  15
ENDBRANCH   1  12
BRANCH   4  17
ATOM     17  O3  UNL     1     -18.585  74.589  90.588  0.00  0.00    +0.000 OA
ATOM     18  H12 UNL     1     -19.264  74.294  89.927  0.00  0.00    +0.000 HD
ENDBRANCH   4  17
BRANCH   3  19
ATOM     19  O4  UNL     1     -19.356  76.398  92.597  0.00  0.00    +0.000 OA
ATOM     20  H13 UNL     1     -20.064  77.078  92.452  0.00  0.00    +0.000 HD
ENDBRANCH   3  19
BRANCH   2  21
ATOM     21  O5  UNL     1     -19.661  75.146  94.918  0.00  0.00    +0.000 OA
ATOM     22  H14 UNL     1     -20.261  75.351  95.681  0.00  0.00    +0.000 HD
ENDBRANCH   2  21
BRANCH   5  23
ATOM     23  C12 UNL     1     -20.175  72.395  90.336  0.00  0.00    +0.000 C 
BRANCH  23  24
ATOM     24  O2  UNL     1     -21.399  71.715  90.403  0.00  0.00    +0.000 OA
ATOM     25  H11 UNL     1     -21.176  70.756  90.530  0.00  0.00    +0.000 HD
ENDBRANCH  23  24
ENDBRANCH   5  23
TORSDOF 8
ENDMDL
MODEL 8
REMARK VINA RESULT:      -3.1      1.602      6.303
REMARK  Name = .\Catechins.pdb
REMARK  8 active torsions:
REMARK  status: ('A' for Active; 'I' for Inactive)
REMARK    1  A    between atoms: C3_3  and  O7_19
REMARK    2  A    between atoms: C4_4  and  O6_18
REMARK    3  A    between atoms: C6_6  and  C7_7
REMARK    4  A    between atoms: C8_8  and  O5_17
REMARK    5  A    between atoms: C9_9  and  O4_16
REMARK    6  A    between atoms: C10_10  and  O3_15
REMARK    7  A    between atoms: C11_11  and  C12_13
REMARK    8  A    between atoms: C12_13  and  O2_14
REMARK                            x       y       z     vdW  Elec       q    Type
REMARK                         _______ _______ _______ _____ _____    ______ ____
ROOT
ATOM      1  C7  UNL     1     -20.870  73.196  93.999  0.00  0.00    +0.000 C 
ATOM      2  C8  UNL     1     -20.404  74.641  93.681  0.00  0.00    +0.000 C 
ATOM      3  C9  UNL     1     -19.960  74.776  92.199  0.00  0.00    +0.000 C 
ATOM      4  C10 UNL     1     -19.398  73.441  91.682  0.00  0.00    +0.000 C 
ATOM      5  C11 UNL     1     -20.453  72.296  91.873  0.00  0.00    +0.000 C 
ATOM      6  O1  UNL     1     -21.446  72.613  92.844  0.00  0.00    +0.000 OA
ENDROOT
BRANCH   1  12
ATOM      7  C1  UNL     1     -22.056  72.068  95.936  0.00  0.00    +0.000 A 
ATOM      8  C2  UNL     1     -23.016  72.067  96.952  0.00  0.00    +0.000 A 
ATOM      9  C3  UNL     1     -23.822  73.195  97.162  0.00  0.00    +0.000 A 
ATOM     10  C4  UNL     1     -23.667  74.322  96.346  0.00  0.00    +0.000 A 
ATOM     11  C5  UNL     1     -22.704  74.323  95.327  0.00  0.00    +0.000 A 
ATOM     12  C6  UNL     1     -21.881  73.202  95.123  0.00  0.00    +0.000 A 
BRANCH  10  13
ATOM     13  O6  UNL     1     -24.477  75.438  96.553  0.00  0.00    +0.000 OA
ATOM     14  H15 UNL     1     -24.729  76.059  95.792  0.00  0.00    +0.000 HD
ENDBRANCH  10  13
BRANCH   9  15
ATOM     15  O7  UNL     1     -24.779  73.198  98.174  0.00  0.00    +0.000 OA
ATOM     16  H16 UNL     1     -25.248  72.347  98.464  0.00  0.00    +0.000 HD
ENDBRANCH   9  15
ENDBRANCH   1  12
BRANCH   4  17
ATOM     17  O3  UNL     1     -19.009  73.566  90.335  0.00  0.00    +0.000 OA
ATOM     18  H12 UNL     1     -19.439  74.388  89.981  0.00  0.00    +0.000 HD
ENDBRANCH   4  17
BRANCH   3  19
ATOM     19  O4  UNL     1     -19.000  75.791  92.054  0.00  0.00    +0.000 OA
ATOM     20  H13 UNL     1     -19.499  76.629  91.870  0.00  0.00    +0.000 HD
ENDBRANCH   3  19
BRANCH   2  21
ATOM     21  O5  UNL     1     -19.383  75.033  94.569  0.00  0.00    +0.000 OA
ATOM     22  H14 UNL     1     -18.556  75.163  94.039  0.00  0.00    +0.000 HD
ENDBRANCH   2  21
BRANCH   5  23
ATOM     23  C12 UNL     1     -21.176  71.937  90.566  0.00  0.00    +0.000 C 
BRANCH  23  24
ATOM     24  O2  UNL     1     -21.954  70.786  90.755  0.00  0.00    +0.000 OA
ATOM     25  H11 UNL     1     -21.314  70.032  90.841  0.00  0.00    +0.000 HD
ENDBRANCH  23  24
ENDBRANCH   5  23
TORSDOF 8
ENDMDL
MODEL 9
REMARK VINA RESULT:      -2.9      2.305      5.710
REMARK  Name = .\Catechins.pdb
REMARK  8 active torsions:
REMARK  status: ('A' for Active; 'I' for Inactive)
REMARK    1  A    between atoms: C3_3  and  O7_19
REMARK    2  A    between atoms: C4_4  and  O6_18
REMARK    3  A    between atoms: C6_6  and  C7_7
REMARK    4  A    between atoms: C8_8  and  O5_17
REMARK    5  A    between atoms: C9_9  and  O4_16
REMARK    6  A    between atoms: C10_10  and  O3_15
REMARK    7  A    between atoms: C11_11  and  C12_13
REMARK    8  A    between atoms: C12_13  and  O2_14
REMARK                            x       y       z     vdW  Elec       q    Type
REMARK                         _______ _______ _______ _____ _____    ______ ____
ROOT
ATOM      1  C7  UNL     1     -22.286  73.275  94.136  0.00  0.00    +0.000 C 
ATOM      2  C8  UNL     1     -20.953  72.495  94.284  0.00  0.00    +0.000 C 
ATOM      3  C9  UNL     1     -20.356  72.133  92.896  0.00  0.00    +0.000 C 
ATOM      4  C10 UNL     1     -21.478  71.947  91.860  0.00  0.00    +0.000 C 
ATOM      5  C11 UNL     1     -22.374  73.233  91.792  0.00  0.00    +0.000 C 
ATOM      6  O1  UNL     1     -22.259  74.052  92.952  0.00  0.00    +0.000 OA
ENDROOT
BRANCH   1  12
ATOM      7  C1  UNL     1     -23.806  74.543  95.723  0.00  0.00    +0.000 A 
ATOM      8  C2  UNL     1     -24.002  75.404  96.806  0.00  0.00    +0.000 A 
ATOM      9  C3  UNL     1     -22.902  75.920  97.504  0.00  0.00    +0.000 A 
ATOM     10  C4  UNL     1     -21.603  75.576  97.110  0.00  0.00    +0.000 A 
ATOM     11  C5  UNL     1     -21.407  74.712  96.023  0.00  0.00    +0.000 A 
ATOM     12  C6  UNL     1     -22.506  74.177  95.330  0.00  0.00    +0.000 A 
BRANCH  10  13
ATOM     13  O6  UNL     1     -20.512  76.099  97.802  0.00  0.00    +0.000 OA
ATOM     14  H15 UNL     1     -20.272  75.778  98.733  0.00  0.00    +0.000 HD
ENDBRANCH  10  13
BRANCH   9  15
ATOM     15  O7  UNL     1     -23.094  76.778  98.585  0.00  0.00    +0.000 OA
ATOM     16  H16 UNL     1     -24.003  76.893  99.017  0.00  0.00    +0.000 HD
ENDBRANCH   9  15
ENDBRANCH   1  12
BRANCH   4  17
ATOM     17  O3  UNL     1     -20.931  71.631  90.603  0.00  0.00    +0.000 OA
ATOM     18  H12 UNL     1     -20.494  70.744  90.689  0.00  0.00    +0.000 HD
ENDBRANCH   4  17
BRANCH   3  19
ATOM     19  O4  UNL     1     -19.576  70.968  92.976  0.00  0.00    +0.000 OA
ATOM     20  H13 UNL     1     -19.322  70.861  93.930  0.00  0.00    +0.000 HD
ENDBRANCH   3  19
BRANCH   2  21
ATOM     21  O5  UNL     1     -21.141  71.353  95.086  0.00  0.00    +0.000 OA
ATOM     22  H14 UNL     1     -21.380  70.600  94.487  0.00  0.00    +0.000 HD
ENDBRANCH   2  21
BRANCH   5  23
ATOM     23  C12 UNL     1     -22.058  74.108  90.570  0.00  0.00    +0.000 C 
BRANCH  23  24
ATOM     24  O2  UNL     1     -20.779  74.664  90.702  0.00  0.00    +0.000 OA
ATOM     25  H11 UNL     1     -20.267  74.372  89.904  0.00  0.00    +0.000 HD
ENDBRANCH  23  24
ENDBRANCH   5  23
TORSDOF 8
ENDMDL
