MODEL 1
REMARK VINA RESULT:      -6.4      0.000      0.000
REMARK  Name = .\Catechins.pdb
REMARK  8 active torsions:
REMARK  status: ('A' for Active; 'I' for Inactive)
REMARK    1  A    between atoms: C3_3  and  O7_19
REMARK    2  A    between atoms: C4_4  and  O6_18
REMARK    3  A    between atoms: C6_6  and  C7_7
REMARK    4  A    between atoms: C8_8  and  O5_17
REMARK    5  A    between atoms: C9_9  and  O4_16
REMARK    6  A    between atoms: C10_10  and  O3_15
REMARK    7  A    between atoms: C11_11  and  C12_13
REMARK    8  A    between atoms: C12_13  and  O2_14
REMARK                            x       y       z     vdW  Elec       q    Type
REMARK                         _______ _______ _______ _____ _____    ______ ____
ROOT
ATOM      1  C7  UNL     1     -12.003  83.734  96.706  0.00  0.00    +0.000 C 
ATOM      2  C8  UNL     1     -11.326  82.343  96.819  0.00  0.00    +0.000 C 
ATOM      3  C9  UNL     1     -10.673  82.147  98.215  0.00  0.00    +0.000 C 
ATOM      4  C10 UNL     1     -10.214  83.498  98.789  0.00  0.00    +0.000 C 
ATOM      5  C11 UNL     1     -11.417  84.503  98.843  0.00  0.00    +0.000 C 
ATOM      6  O1  UNL     1     -12.485  84.137  97.975  0.00  0.00    +0.000 OA
ENDROOT
BRANCH   1  12
ATOM      7  C1  UNL     1     -14.481  83.691  96.166  0.00  0.00    +0.000 A 
ATOM      8  C2  UNL     1     -15.535  83.611  95.251  0.00  0.00    +0.000 A 
ATOM      9  C3  UNL     1     -15.271  83.513  93.878  0.00  0.00    +0.000 A 
ATOM     10  C4  UNL     1     -13.946  83.489  93.424  0.00  0.00    +0.000 A 
ATOM     11  C5  UNL     1     -12.889  83.569  94.342  0.00  0.00    +0.000 A 
ATOM     12  C6  UNL     1     -13.148  83.686  95.719  0.00  0.00    +0.000 A 
BRANCH  10  13
ATOM     13  O6  UNL     1     -13.688  83.383  92.058  0.00  0.00    +0.000 OA
ATOM     14  H15 UNL     1     -14.411  83.547  91.368  0.00  0.00    +0.000 HD
ENDBRANCH  10  13
BRANCH   9  15
ATOM     15  O7  UNL     1     -16.318  83.434  92.963  0.00  0.00    +0.000 OA
ATOM     16  H16 UNL     1     -17.261  83.201  93.254  0.00  0.00    +0.000 HD
ENDBRANCH   9  15
ENDBRANCH   1  12
BRANCH   4  17
ATOM     17  O3  UNL     1      -9.635  83.315 100.058  0.00  0.00    +0.000 OA
ATOM     18  H12 UNL     1      -8.955  84.028 100.175  0.00  0.00    +0.000 HD
ENDBRANCH   4  17
BRANCH   3  19
ATOM     19  O4  UNL     1      -9.587  81.261  98.139  0.00  0.00    +0.000 OA
ATOM     20  H13 UNL     1      -9.363  81.006  99.072  0.00  0.00    +0.000 HD
ENDBRANCH   3  19
BRANCH   2  21
ATOM     21  O5  UNL     1     -10.394  82.166  95.778  0.00  0.00    +0.000 OA
ATOM     22  H14 UNL     1     -10.775  82.577  94.960  0.00  0.00    +0.000 HD
ENDBRANCH   2  21
BRANCH   5  23
ATOM     23  C12 UNL     1     -11.997  84.654 100.258  0.00  0.00    +0.000 C 
BRANCH  23  24
ATOM     24  O2  UNL     1     -11.267  85.616 100.969  0.00  0.00    +0.000 OA
ATOM     25  H11 UNL     1     -10.945  85.165 101.793  0.00  0.00    +0.000 HD
ENDBRANCH  23  24
ENDBRANCH   5  23
TORSDOF 8
ENDMDL
MODEL 2
REMARK VINA RESULT:      -6.3      1.815      3.214
REMARK  Name = .\Catechins.pdb
REMARK  8 active torsions:
REMARK  status: ('A' for Active; 'I' for Inactive)
REMARK    1  A    between atoms: C3_3  and  O7_19
REMARK    2  A    between atoms: C4_4  and  O6_18
REMARK    3  A    between atoms: C6_6  and  C7_7
REMARK    4  A    between atoms: C8_8  and  O5_17
REMARK    5  A    between atoms: C9_9  and  O4_16
REMARK    6  A    between atoms: C10_10  and  O3_15
REMARK    7  A    between atoms: C11_11  and  C12_13
REMARK    8  A    between atoms: C12_13  and  O2_14
REMARK                            x       y       z     vdW  Elec       q    Type
REMARK                         _______ _______ _______ _____ _____    ______ ____
ROOT
ATOM      1  C7  UNL     1     -11.345  84.029  99.270  0.00  0.00    +0.000 C 
ATOM      2  C8  UNL     1     -10.487  82.902  99.904  0.00  0.00    +0.000 C 
ATOM      3  C9  UNL     1     -10.536  82.964 101.456  0.00  0.00    +0.000 C 
ATOM      4  C10 UNL     1     -10.737  84.413 101.930  0.00  0.00    +0.000 C 
ATOM      5  C11 UNL     1     -12.028  85.024 101.282  0.00  0.00    +0.000 C 
ATOM      6  O1  UNL     1     -12.444  84.326 100.112  0.00  0.00    +0.000 OA
ENDROOT
BRANCH   1  12
ATOM      7  C1  UNL     1     -12.902  84.299  97.286  0.00  0.00    +0.000 A 
ATOM      8  C2  UNL     1     -13.386  83.883  96.043  0.00  0.00    +0.000 A 
ATOM      9  C3  UNL     1     -12.831  82.763  95.408  0.00  0.00    +0.000 A 
ATOM     10  C4  UNL     1     -11.793  82.056  96.027  0.00  0.00    +0.000 A 
ATOM     11  C5  UNL     1     -11.308  82.474  97.275  0.00  0.00    +0.000 A 
ATOM     12  C6  UNL     1     -11.848  83.607  97.908  0.00  0.00    +0.000 A 
BRANCH  10  13
ATOM     13  O6  UNL     1     -11.249  80.938  95.397  0.00  0.00    +0.000 OA
ATOM     14  H15 UNL     1     -11.764  80.426  94.690  0.00  0.00    +0.000 HD
ENDBRANCH  10  13
BRANCH   9  15
ATOM     15  O7  UNL     1     -13.310  82.347  94.168  0.00  0.00    +0.000 OA
ATOM     16  H16 UNL     1     -13.933  81.552  94.080  0.00  0.00    +0.000 HD
ENDBRANCH   9  15
ENDBRANCH   1  12
BRANCH   4  17
ATOM     17  O3  UNL     1     -10.792  84.461 103.336  0.00  0.00    +0.000 OA
ATOM     18  H12 UNL     1     -11.082  85.377 103.586  0.00  0.00    +0.000 HD
ENDBRANCH   4  17
BRANCH   3  19
ATOM     19  O4  UNL     1      -9.363  82.432 102.014  0.00  0.00    +0.000 OA
ATOM     20  H13 UNL     1      -9.422  81.446 101.915  0.00  0.00    +0.000 HD
ENDBRANCH   3  19
BRANCH   2  21
ATOM     21  O5  UNL     1      -9.166  82.962  99.421  0.00  0.00    +0.000 OA
ATOM     22  H14 UNL     1      -9.110  83.725  98.790  0.00  0.00    +0.000 HD
ENDBRANCH   2  21
BRANCH   5  23
ATOM     23  C12 UNL     1     -13.217  85.058 102.254  0.00  0.00    +0.000 C 
BRANCH  23  24
ATOM     24  O2  UNL     1     -14.122  86.053 101.861  0.00  0.00    +0.000 OA
ATOM     25  H11 UNL     1     -14.695  86.232 102.651  0.00  0.00    +0.000 HD
ENDBRANCH  23  24
ENDBRANCH   5  23
TORSDOF 8
ENDMDL
MODEL 3
REMARK VINA RESULT:      -6.2      2.597      4.121
REMARK  Name = .\Catechins.pdb
REMARK  8 active torsions:
REMARK  status: ('A' for Active; 'I' for Inactive)
REMARK    1  A    between atoms: C3_3  and  O7_19
REMARK    2  A    between atoms: C4_4  and  O6_18
REMARK    3  A    between atoms: C6_6  and  C7_7
REMARK    4  A    between atoms: C8_8  and  O5_17
REMARK    5  A    between atoms: C9_9  and  O4_16
REMARK    6  A    between atoms: C10_10  and  O3_15
REMARK    7  A    between atoms: C11_11  and  C12_13
REMARK    8  A    between atoms: C12_13  and  O2_14
REMARK                            x       y       z     vdW  Elec       q    Type
REMARK                         _______ _______ _______ _____ _____    ______ ____
ROOT
ATOM      1  C7  UNL     1     -12.366  83.422  99.991  0.00  0.00    +0.000 C 
ATOM      2  C8  UNL     1     -11.086  84.148 100.483  0.00  0.00    +0.000 C 
ATOM      3  C9  UNL     1     -10.586  83.555 101.830  0.00  0.00    +0.000 C 
ATOM      4  C10 UNL     1     -11.768  83.011 102.649  0.00  0.00    +0.000 C 
ATOM      5  C11 UNL     1     -12.573  81.957 101.811  0.00  0.00    +0.000 C 
ATOM      6  O1  UNL     1     -12.342  82.069 100.410  0.00  0.00    +0.000 OA
ENDROOT
BRANCH   1  12
ATOM      7  C1  UNL     1     -13.645  83.913  97.856  0.00  0.00    +0.000 A 
ATOM      8  C2  UNL     1     -13.740  83.937  96.462  0.00  0.00    +0.000 A 
ATOM      9  C3  UNL     1     -12.658  83.521  95.675  0.00  0.00    +0.000 A 
ATOM     10  C4  UNL     1     -11.481  83.076  96.289  0.00  0.00    +0.000 A 
ATOM     11  C5  UNL     1     -11.386  83.053  97.688  0.00  0.00    +0.000 A 
ATOM     12  C6  UNL     1     -12.462  83.485  98.483  0.00  0.00    +0.000 A 
BRANCH  10  13
ATOM     13  O6  UNL     1     -10.409  82.655  95.502  0.00  0.00    +0.000 OA
ATOM     14  H15 UNL     1     -10.163  83.134  94.643  0.00  0.00    +0.000 HD
ENDBRANCH  10  13
BRANCH   9  15
ATOM     15  O7  UNL     1     -12.748  83.544  94.285  0.00  0.00    +0.000 OA
ATOM     16  H16 UNL     1     -13.643  83.586  93.812  0.00  0.00    +0.000 HD
ENDBRANCH   9  15
ENDBRANCH   1  12
BRANCH   4  17
ATOM     17  O3  UNL     1     -11.309  82.465 103.862  0.00  0.00    +0.000 OA
ATOM     18  H12 UNL     1     -11.233  83.213 104.510  0.00  0.00    +0.000 HD
ENDBRANCH   4  17
BRANCH   3  19
ATOM     19  O4  UNL     1      -9.888  84.521 102.573  0.00  0.00    +0.000 OA
ATOM     20  H13 UNL     1      -9.113  84.057 102.984  0.00  0.00    +0.000 HD
ENDBRANCH   3  19
BRANCH   2  21
ATOM     21  O5  UNL     1     -11.314  85.534 100.576  0.00  0.00    +0.000 OA
ATOM     22  H14 UNL     1     -11.909  85.792  99.825  0.00  0.00    +0.000 HD
ENDBRANCH   2  21
BRANCH   5  23
ATOM     23  C12 UNL     1     -12.256  80.511 102.222  0.00  0.00    +0.000 C 
BRANCH  23  24
ATOM     24  O2  UNL     1     -12.997  80.168 103.361  0.00  0.00    +0.000 OA
ATOM     25  H11 UNL     1     -13.914  79.962 103.042  0.00  0.00    +0.000 HD
ENDBRANCH  23  24
ENDBRANCH   5  23
TORSDOF 8
ENDMDL
MODEL 4
REMARK VINA RESULT:      -6.1      2.350      6.771
REMARK  Name = .\Catechins.pdb
REMARK  8 active torsions:
REMARK  status: ('A' for Active; 'I' for Inactive)
REMARK    1  A    between atoms: C3_3  and  O7_19
REMARK    2  A    between atoms: C4_4  and  O6_18
REMARK    3  A    between atoms: C6_6  and  C7_7
REMARK    4  A    between atoms: C8_8  and  O5_17
REMARK    5  A    between atoms: C9_9  and  O4_16
REMARK    6  A    between atoms: C10_10  and  O3_15
REMARK    7  A    between atoms: C11_11  and  C12_13
REMARK    8  A    between atoms: C12_13  and  O2_14
REMARK                            x       y       z     vdW  Elec       q    Type
REMARK                         _______ _______ _______ _____ _____    ______ ____
ROOT
ATOM      1  C7  UNL     1     -12.441  83.437  98.329  0.00  0.00    +0.000 C 
ATOM      2  C8  UNL     1     -13.952  83.779  98.417  0.00  0.00    +0.000 C 
ATOM      3  C9  UNL     1     -14.663  83.537  97.057  0.00  0.00    +0.000 C 
ATOM      4  C10 UNL     1     -13.685  83.760  95.891  0.00  0.00    +0.000 C 
ATOM      5  C11 UNL     1     -12.420  82.846  96.059  0.00  0.00    +0.000 C 
ATOM      6  O1  UNL     1     -12.239  82.391  97.396  0.00  0.00    +0.000 OA
ENDROOT
BRANCH   1  12
ATOM      7  C1  UNL     1     -12.358  81.829 100.289  0.00  0.00    +0.000 A 
ATOM      8  C2  UNL     1     -11.894  81.465 101.556  0.00  0.00    +0.000 A 
ATOM      9  C3  UNL     1     -10.992  82.290 102.242  0.00  0.00    +0.000 A 
ATOM     10  C4  UNL     1     -10.559  83.486 101.655  0.00  0.00    +0.000 A 
ATOM     11  C5  UNL     1     -11.024  83.851 100.383  0.00  0.00    +0.000 A 
ATOM     12  C6  UNL     1     -11.915  83.019  99.684  0.00  0.00    +0.000 A 
BRANCH  10  13
ATOM     13  O6  UNL     1      -9.668  84.308 102.343  0.00  0.00    +0.000 OA
ATOM     14  H15 UNL     1      -8.691  84.061 102.446  0.00  0.00    +0.000 HD
ENDBRANCH  10  13
BRANCH   9  15
ATOM     15  O7  UNL     1     -10.527  81.930 103.504  0.00  0.00    +0.000 OA
ATOM     16  H16 UNL     1      -9.928  81.124 103.640  0.00  0.00    +0.000 HD
ENDBRANCH   9  15
ENDBRANCH   1  12
BRANCH   4  17
ATOM     17  O3  UNL     1     -14.331  83.528  94.663  0.00  0.00    +0.000 OA
ATOM     18  H12 UNL     1     -15.010  84.243  94.549  0.00  0.00    +0.000 HD
ENDBRANCH   4  17
BRANCH   3  19
ATOM     19  O4  UNL     1     -15.778  84.380  96.918  0.00  0.00    +0.000 OA
ATOM     20  H13 UNL     1     -15.430  85.269  96.648  0.00  0.00    +0.000 HD
ENDBRANCH   3  19
BRANCH   2  21
ATOM     21  O5  UNL     1     -14.130  85.100  98.871  0.00  0.00    +0.000 OA
ATOM     22  H14 UNL     1     -13.389  85.306  99.497  0.00  0.00    +0.000 HD
ENDBRANCH   2  21
BRANCH   5  23
ATOM     23  C12 UNL     1     -12.460  81.611  95.146  0.00  0.00    +0.000 C 
BRANCH  23  24
ATOM     24  O2  UNL     1     -11.321  80.824  95.364  0.00  0.00    +0.000 OA
ATOM     25  H11 UNL     1     -10.585  81.260  94.860  0.00  0.00    +0.000 HD
ENDBRANCH  23  24
ENDBRANCH   5  23
TORSDOF 8
ENDMDL
MODEL 5
REMARK VINA RESULT:      -5.9      2.038      6.379
REMARK  Name = .\Catechins.pdb
REMARK  8 active torsions:
REMARK  status: ('A' for Active; 'I' for Inactive)
REMARK    1  A    between atoms: C3_3  and  O7_19
REMARK    2  A    between atoms: C4_4  and  O6_18
REMARK    3  A    between atoms: C6_6  and  C7_7
REMARK    4  A    between atoms: C8_8  and  O5_17
REMARK    5  A    between atoms: C9_9  and  O4_16
REMARK    6  A    between atoms: C10_10  and  O3_15
REMARK    7  A    between atoms: C11_11  and  C12_13
REMARK    8  A    between atoms: C12_13  and  O2_14
REMARK                            x       y       z     vdW  Elec       q    Type
REMARK                         _______ _______ _______ _____ _____    ______ ____
ROOT
ATOM      1  C7  UNL     1     -12.337  82.491  98.733  0.00  0.00    +0.000 C 
ATOM      2  C8  UNL     1     -11.005  82.697  97.964  0.00  0.00    +0.000 C 
ATOM      3  C9  UNL     1     -11.265  83.049  96.474  0.00  0.00    +0.000 C 
ATOM      4  C10 UNL     1     -12.575  82.404  95.989  0.00  0.00    +0.000 C 
ATOM      5  C11 UNL     1     -13.769  82.839  96.908  0.00  0.00    +0.000 C 
ATOM      6  O1  UNL     1     -13.344  83.319  98.180  0.00  0.00    +0.000 OA
ENDROOT
BRANCH   1  12
ATOM      7  C1  UNL     1     -13.138  82.461 101.140  0.00  0.00    +0.000 A 
ATOM      8  C2  UNL     1     -12.983  82.797 102.487  0.00  0.00    +0.000 A 
ATOM      9  C3  UNL     1     -11.850  83.505 102.911  0.00  0.00    +0.000 A 
ATOM     10  C4  UNL     1     -10.875  83.882 101.979  0.00  0.00    +0.000 A 
ATOM     11  C5  UNL     1     -11.032  83.544 100.627  0.00  0.00    +0.000 A 
ATOM     12  C6  UNL     1     -12.157  82.819 100.199  0.00  0.00    +0.000 A 
BRANCH  10  13
ATOM     13  O6  UNL     1      -9.755  84.594 102.403  0.00  0.00    +0.000 OA
ATOM     14  H15 UNL     1      -8.834  84.410 102.023  0.00  0.00    +0.000 HD
ENDBRANCH  10  13
BRANCH   9  15
ATOM     15  O7  UNL     1     -11.691  83.841 104.254  0.00  0.00    +0.000 OA
ATOM     16  H16 UNL     1     -12.149  83.317 104.990  0.00  0.00    +0.000 HD
ENDBRANCH   9  15
ENDBRANCH   1  12
BRANCH   4  17
ATOM     17  O3  UNL     1     -12.811  82.736  94.642  0.00  0.00    +0.000 OA
ATOM     18  H12 UNL     1     -13.578  82.186  94.335  0.00  0.00    +0.000 HD
ENDBRANCH   4  17
BRANCH   3  19
ATOM     19  O4  UNL     1     -10.195  82.632  95.667  0.00  0.00    +0.000 OA
ATOM     20  H13 UNL     1      -9.413  83.188  95.922  0.00  0.00    +0.000 HD
ENDBRANCH   3  19
BRANCH   2  21
ATOM     21  O5  UNL     1     -10.182  81.562  98.096  0.00  0.00    +0.000 OA
ATOM     22  H14 UNL     1     -10.200  81.286  99.049  0.00  0.00    +0.000 HD
ENDBRANCH   2  21
BRANCH   5  23
ATOM     23  C12 UNL     1     -14.641  83.929  96.266  0.00  0.00    +0.000 C 
BRANCH  23  24
ATOM     24  O2  UNL     1     -15.562  83.343  95.388  0.00  0.00    +0.000 OA
ATOM     25  H11 UNL     1     -16.106  82.718  95.935  0.00  0.00    +0.000 HD
ENDBRANCH  23  24
ENDBRANCH   5  23
TORSDOF 8
ENDMDL
MODEL 6
REMARK VINA RESULT:      -5.9      1.791      6.284
REMARK  Name = .\Catechins.pdb
REMARK  8 active torsions:
REMARK  status: ('A' for Active; 'I' for Inactive)
REMARK    1  A    between atoms: C3_3  and  O7_19
REMARK    2  A    between atoms: C4_4  and  O6_18
REMARK    3  A    between atoms: C6_6  and  C7_7
REMARK    4  A    between atoms: C8_8  and  O5_17
REMARK    5  A    between atoms: C9_9  and  O4_16
REMARK    6  A    between atoms: C10_10  and  O3_15
REMARK    7  A    between atoms: C11_11  and  C12_13
REMARK    8  A    between atoms: C12_13  and  O2_14
REMARK                            x       y       z     vdW  Elec       q    Type
REMARK                         _______ _______ _______ _____ _____    ______ ____
ROOT
ATOM      1  C7  UNL     1     -11.903  82.366  97.461  0.00  0.00    +0.000 C 
ATOM      2  C8  UNL     1     -11.624  83.360  96.303  0.00  0.00    +0.000 C 
ATOM      3  C9  UNL     1     -12.854  83.488  95.364  0.00  0.00    +0.000 C 
ATOM      4  C10 UNL     1     -13.655  82.175  95.342  0.00  0.00    +0.000 C 
ATOM      5  C11 UNL     1     -14.073  81.768  96.799  0.00  0.00    +0.000 C 
ATOM      6  O1  UNL     1     -13.278  82.397  97.800  0.00  0.00    +0.000 OA
ENDROOT
BRANCH   1  12
ATOM      7  C1  UNL     1      -9.941  81.961  99.018  0.00  0.00    +0.000 A 
ATOM      8  C2  UNL     1      -9.198  82.273 100.159  0.00  0.00    +0.000 A 
ATOM      9  C3  UNL     1      -9.581  83.342 100.980  0.00  0.00    +0.000 A 
ATOM     10  C4  UNL     1     -10.717  84.095 100.657  0.00  0.00    +0.000 A 
ATOM     11  C5  UNL     1     -11.463  83.782  99.511  0.00  0.00    +0.000 A 
ATOM     12  C6  UNL     1     -11.073  82.722  98.675  0.00  0.00    +0.000 A 
BRANCH  10  13
ATOM     13  O6  UNL     1     -11.100  85.153 101.480  0.00  0.00    +0.000 OA
ATOM     14  H15 UNL     1     -11.197  86.095 101.122  0.00  0.00    +0.000 HD
ENDBRANCH  10  13
BRANCH   9  15
ATOM     15  O7  UNL     1      -8.842  83.657 102.118  0.00  0.00    +0.000 OA
ATOM     16  H16 UNL     1      -8.028  83.118 102.388  0.00  0.00    +0.000 HD
ENDBRANCH   9  15
ENDBRANCH   1  12
BRANCH   4  17
ATOM     17  O3  UNL     1     -14.774  82.301  94.499  0.00  0.00    +0.000 OA
ATOM     18  H12 UNL     1     -15.279  81.448  94.553  0.00  0.00    +0.000 HD
ENDBRANCH   4  17
BRANCH   3  19
ATOM     19  O4  UNL     1     -12.456  83.831  94.062  0.00  0.00    +0.000 OA
ATOM     20  H13 UNL     1     -11.532  83.486  93.947  0.00  0.00    +0.000 HD
ENDBRANCH   3  19
BRANCH   2  21
ATOM     21  O5  UNL     1     -10.467  82.977  95.598  0.00  0.00    +0.000 OA
ATOM     22  H14 UNL     1     -10.088  82.180  96.050  0.00  0.00    +0.000 HD
ENDBRANCH   2  21
BRANCH   5  23
ATOM     23  C12 UNL     1     -15.544  82.089  97.101  0.00  0.00    +0.000 C 
BRANCH  23  24
ATOM     24  O2  UNL     1     -15.733  83.477  97.119  0.00  0.00    +0.000 OA
ATOM     25  H11 UNL     1     -14.828  83.880  97.050  0.00  0.00    +0.000 HD
ENDBRANCH  23  24
ENDBRANCH   5  23
TORSDOF 8
ENDMDL
MODEL 7
REMARK VINA RESULT:      -5.7      2.922      6.684
REMARK  Name = .\Catechins.pdb
REMARK  8 active torsions:
REMARK  status: ('A' for Active; 'I' for Inactive)
REMARK    1  A    between atoms: C3_3  and  O7_19
REMARK    2  A    between atoms: C4_4  and  O6_18
REMARK    3  A    between atoms: C6_6  and  C7_7
REMARK    4  A    between atoms: C8_8  and  O5_17
REMARK    5  A    between atoms: C9_9  and  O4_16
REMARK    6  A    between atoms: C10_10  and  O3_15
REMARK    7  A    between atoms: C11_11  and  C12_13
REMARK    8  A    between atoms: C12_13  and  O2_14
REMARK                            x       y       z     vdW  Elec       q    Type
REMARK                         _______ _______ _______ _____ _____    ______ ____
ROOT
ATOM      1  C7  UNL     1     -11.515  84.215  99.900  0.00  0.00    +0.000 C 
ATOM      2  C8  UNL     1     -12.566  83.938  98.793  0.00  0.00    +0.000 C 
ATOM      3  C9  UNL     1     -11.999  82.987  97.704  0.00  0.00    +0.000 C 
ATOM      4  C10 UNL     1     -10.477  83.167  97.572  0.00  0.00    +0.000 C 
ATOM      5  C11 UNL     1      -9.781  82.945  98.960  0.00  0.00    +0.000 C 
ATOM      6  O1  UNL     1     -10.677  83.085 100.059  0.00  0.00    +0.000 OA
ENDROOT
BRANCH   1  12
ATOM      7  C1  UNL     1     -13.596  84.675 101.275  0.00  0.00    +0.000 A 
ATOM      8  C2  UNL     1     -14.220  84.999 102.483  0.00  0.00    +0.000 A 
ATOM      9  C3  UNL     1     -13.456  85.193 103.642  0.00  0.00    +0.000 A 
ATOM     10  C4  UNL     1     -12.062  85.067 103.585  0.00  0.00    +0.000 A 
ATOM     11  C5  UNL     1     -11.437  84.741 102.373  0.00  0.00    +0.000 A 
ATOM     12  C6  UNL     1     -12.199  84.528 101.212  0.00  0.00    +0.000 A 
BRANCH  10  13
ATOM     13  O6  UNL     1     -11.305  85.269 104.738  0.00  0.00    +0.000 OA
ATOM     14  H15 UNL     1     -11.064  84.501 105.355  0.00  0.00    +0.000 HD
ENDBRANCH  10  13
BRANCH   9  15
ATOM     15  O7  UNL     1     -14.074  85.515 104.848  0.00  0.00    +0.000 OA
ATOM     16  H16 UNL     1     -13.536  85.751 105.674  0.00  0.00    +0.000 HD
ENDBRANCH   9  15
ENDBRANCH   1  12
BRANCH   4  17
ATOM     17  O3  UNL     1      -9.968  82.295  96.593  0.00  0.00    +0.000 OA
ATOM     18  H12 UNL     1      -8.978  82.335  96.652  0.00  0.00    +0.000 HD
ENDBRANCH   4  17
BRANCH   3  19
ATOM     19  O4  UNL     1     -12.621  83.217  96.466  0.00  0.00    +0.000 OA
ATOM     20  H13 UNL     1     -13.285  82.490  96.342  0.00  0.00    +0.000 HD
ENDBRANCH   3  19
BRANCH   2  21
ATOM     21  O5  UNL     1     -13.026  85.149  98.241  0.00  0.00    +0.000 OA
ATOM     22  H14 UNL     1     -12.789  85.877  98.871  0.00  0.00    +0.000 HD
ENDBRANCH   2  21
BRANCH   5  23
ATOM     23  C12 UNL     1      -9.115  81.565  99.072  0.00  0.00    +0.000 C 
BRANCH  23  24
ATOM     24  O2  UNL     1      -8.113  81.600 100.051  0.00  0.00    +0.000 OA
ATOM     25  H11 UNL     1      -7.533  80.813  99.880  0.00  0.00    +0.000 HD
ENDBRANCH  23  24
ENDBRANCH   5  23
TORSDOF 8
ENDMDL
MODEL 8
REMARK VINA RESULT:      -5.7      3.590      5.590
REMARK  Name = .\Catechins.pdb
REMARK  8 active torsions:
REMARK  status: ('A' for Active; 'I' for Inactive)
REMARK    1  A    between atoms: C3_3  and  O7_19
REMARK    2  A    between atoms: C4_4  and  O6_18
REMARK    3  A    between atoms: C6_6  and  C7_7
REMARK    4  A    between atoms: C8_8  and  O5_17
REMARK    5  A    between atoms: C9_9  and  O4_16
REMARK    6  A    between atoms: C10_10  and  O3_15
REMARK    7  A    between atoms: C11_11  and  C12_13
REMARK    8  A    between atoms: C12_13  and  O2_14
REMARK                            x       y       z     vdW  Elec       q    Type
REMARK                         _______ _______ _______ _____ _____    ______ ____
ROOT
ATOM      1  C7  UNL     1     -12.539  81.998 100.820  0.00  0.00    +0.000 C 
ATOM      2  C8  UNL     1     -11.716  82.742 101.905  0.00  0.00    +0.000 C 
ATOM      3  C9  UNL     1     -11.807  82.017 103.276  0.00  0.00    +0.000 C 
ATOM      4  C10 UNL     1     -13.156  81.289 103.411  0.00  0.00    +0.000 C 
ATOM      5  C11 UNL     1     -13.363  80.299 102.212  0.00  0.00    +0.000 C 
ATOM      6  O1  UNL     1     -12.542  80.608 101.089  0.00  0.00    +0.000 OA
ENDROOT
BRANCH   1  12
ATOM      7  C1  UNL     1     -10.563  82.212  99.245  0.00  0.00    +0.000 A 
ATOM      8  C2  UNL     1     -10.026  82.479  97.982  0.00  0.00    +0.000 A 
ATOM      9  C3  UNL     1     -10.869  82.799  96.910  0.00  0.00    +0.000 A 
ATOM     10  C4  UNL     1     -12.254  82.856  97.107  0.00  0.00    +0.000 A 
ATOM     11  C5  UNL     1     -12.793  82.588  98.373  0.00  0.00    +0.000 A 
ATOM     12  C6  UNL     1     -11.954  82.250  99.448  0.00  0.00    +0.000 A 
BRANCH  10  13
ATOM     13  O6  UNL     1     -13.089  83.182  96.039  0.00  0.00    +0.000 OA
ATOM     14  H15 UNL     1     -13.860  83.832  96.148  0.00  0.00    +0.000 HD
ENDBRANCH  10  13
BRANCH   9  15
ATOM     15  O7  UNL     1     -10.337  83.064  95.650  0.00  0.00    +0.000 OA
ATOM     16  H16 UNL     1     -10.015  82.320  95.042  0.00  0.00    +0.000 HD
ENDBRANCH   9  15
ENDBRANCH   1  12
BRANCH   4  17
ATOM     17  O3  UNL     1     -13.227  80.624 104.649  0.00  0.00    +0.000 OA
ATOM     18  H12 UNL     1     -13.796  81.177 105.246  0.00  0.00    +0.000 HD
ENDBRANCH   4  17
BRANCH   3  19
ATOM     19  O4  UNL     1     -11.641  82.924 104.334  0.00  0.00    +0.000 OA
ATOM     20  H13 UNL     1     -11.413  83.799 103.925  0.00  0.00    +0.000 HD
ENDBRANCH   3  19
BRANCH   2  21
ATOM     21  O5  UNL     1     -12.128  84.085 101.997  0.00  0.00    +0.000 OA
ATOM     22  H14 UNL     1     -12.697  84.171 102.805  0.00  0.00    +0.000 HD
ENDBRANCH   2  21
BRANCH   5  23
ATOM     23  C12 UNL     1     -13.092  78.838 102.600  0.00  0.00    +0.000 C 
BRANCH  23  24
ATOM     24  O2  UNL     1     -11.728  78.664 102.870  0.00  0.00    +0.000 OA
ATOM     25  H11 UNL     1     -11.599  78.926 103.819  0.00  0.00    +0.000 HD
ENDBRANCH  23  24
ENDBRANCH   5  23
TORSDOF 8
ENDMDL
MODEL 9
REMARK VINA RESULT:      -5.6      2.368      3.997
REMARK  Name = .\Catechins.pdb
REMARK  8 active torsions:
REMARK  status: ('A' for Active; 'I' for Inactive)
REMARK    1  A    between atoms: C3_3  and  O7_19
REMARK    2  A    between atoms: C4_4  and  O6_18
REMARK    3  A    between atoms: C6_6  and  C7_7
REMARK    4  A    between atoms: C8_8  and  O5_17
REMARK    5  A    between atoms: C9_9  and  O4_16
REMARK    6  A    between atoms: C10_10  and  O3_15
REMARK    7  A    between atoms: C11_11  and  C12_13
REMARK    8  A    between atoms: C12_13  and  O2_14
REMARK                            x       y       z     vdW  Elec       q    Type
REMARK                         _______ _______ _______ _____ _____    ______ ____
ROOT
ATOM      1  C7  UNL     1     -12.314  82.802  99.629  0.00  0.00    +0.000 C 
ATOM      2  C8  UNL     1     -13.267  83.733 100.424  0.00  0.00    +0.000 C 
ATOM      3  C9  UNL     1     -12.753  83.960 101.872  0.00  0.00    +0.000 C 
ATOM      4  C10 UNL     1     -11.965  82.733 102.361  0.00  0.00    +0.000 C 
ATOM      5  C11 UNL     1     -10.793  82.407 101.370  0.00  0.00    +0.000 C 
ATOM      6  O1  UNL     1     -10.984  82.979 100.080  0.00  0.00    +0.000 OA
ENDROOT
BRANCH   1  12
ATOM      7  C1  UNL     1     -13.268  82.384  97.316  0.00  0.00    +0.000 A 
ATOM      8  C2  UNL     1     -13.313  82.644  95.943  0.00  0.00    +0.000 A 
ATOM      9  C3  UNL     1     -12.477  83.619  95.383  0.00  0.00    +0.000 A 
ATOM     10  C4  UNL     1     -11.590  84.330  96.201  0.00  0.00    +0.000 A 
ATOM     11  C5  UNL     1     -11.546  84.069  97.578  0.00  0.00    +0.000 A 
ATOM     12  C6  UNL     1     -12.394  83.105  98.149  0.00  0.00    +0.000 A 
BRANCH  10  13
ATOM     13  O6  UNL     1     -10.753  85.292  95.638  0.00  0.00    +0.000 OA
ATOM     14  H15 UNL     1      -9.989  85.037  95.024  0.00  0.00    +0.000 HD
ENDBRANCH  10  13
BRANCH   9  15
ATOM     15  O7  UNL     1     -12.519  83.882  94.015  0.00  0.00    +0.000 OA
ATOM     16  H16 UNL     1     -11.776  83.582  93.394  0.00  0.00    +0.000 HD
ENDBRANCH   9  15
ENDBRANCH   1  12
BRANCH   4  17
ATOM     17  O3  UNL     1     -11.491  82.948 103.669  0.00  0.00    +0.000 OA
ATOM     18  H12 UNL     1     -11.994  83.720 104.039  0.00  0.00    +0.000 HD
ENDBRANCH   4  17
BRANCH   3  19
ATOM     19  O4  UNL     1     -13.819  84.228 102.746  0.00  0.00    +0.000 OA
ATOM     20  H13 UNL     1     -14.071  85.177 102.604  0.00  0.00    +0.000 HD
ENDBRANCH   3  19
BRANCH   2  21
ATOM     21  O5  UNL     1     -14.578  83.220 100.410  0.00  0.00    +0.000 OA
ATOM     22  H14 UNL     1     -14.519  82.246 100.230  0.00  0.00    +0.000 HD
ENDBRANCH   2  21
BRANCH   5  23
ATOM     23  C12 UNL     1      -9.429  82.881 101.894  0.00  0.00    +0.000 C 
BRANCH  23  24
ATOM     24  O2  UNL     1      -9.495  84.240 102.227  0.00  0.00    +0.000 OA
ATOM     25  H11 UNL     1      -8.556  84.558 102.274  0.00  0.00    +0.000 HD
ENDBRANCH  23  24
ENDBRANCH   5  23
TORSDOF 8
ENDMDL
