MODEL 1
REMARK VINA RESULT:      -4.6      0.000      0.000
REMARK  Name = .\Catechins.pdb
REMARK  8 active torsions:
REMARK  status: ('A' for Active; 'I' for Inactive)
REMARK    1  A    between atoms: C3_3  and  O7_19
REMARK    2  A    between atoms: C4_4  and  O6_18
REMARK    3  A    between atoms: C6_6  and  C7_7
REMARK    4  A    between atoms: C8_8  and  O5_17
REMARK    5  A    between atoms: C9_9  and  O4_16
REMARK    6  A    between atoms: C10_10  and  O3_15
REMARK    7  A    between atoms: C11_11  and  C12_13
REMARK    8  A    between atoms: C12_13  and  O2_14
REMARK                            x       y       z     vdW  Elec       q    Type
REMARK                         _______ _______ _______ _____ _____    ______ ____
ROOT
ATOM      1  C7  UNL     1       0.265 100.212  99.672  0.00  0.00    +0.000 C 
ATOM      2  C8  UNL     1      -1.140 100.851  99.831  0.00  0.00    +0.000 C 
ATOM      3  C9  UNL     1      -1.178 101.834 101.033  0.00  0.00    +0.000 C 
ATOM      4  C10 UNL     1      -0.185 101.391 102.121  0.00  0.00    +0.000 C 
ATOM      5  C11 UNL     1       1.258 101.259 101.521  0.00  0.00    +0.000 C 
ATOM      6  O1  UNL     1       1.258 101.124 100.103  0.00  0.00    +0.000 OA
ENDROOT
BRANCH   1  12
ATOM      7  C1  UNL     1       1.549 100.441  97.496  0.00  0.00    +0.000 A 
ATOM      8  C2  UNL     1       1.752 100.114  96.153  0.00  0.00    +0.000 A 
ATOM      9  C3  UNL     1       0.915  99.185  95.519  0.00  0.00    +0.000 A 
ATOM     10  C4  UNL     1      -0.131  98.589  96.234  0.00  0.00    +0.000 A 
ATOM     11  C5  UNL     1      -0.334  98.917  97.582  0.00  0.00    +0.000 A 
ATOM     12  C6  UNL     1       0.513  99.834  98.228  0.00  0.00    +0.000 A 
BRANCH  10  13
ATOM     13  O6  UNL     1      -0.966  97.672  95.598  0.00  0.00    +0.000 OA
ATOM     14  H15 UNL     1      -1.873  97.943  95.236  0.00  0.00    +0.000 HD
ENDBRANCH  10  13
BRANCH   9  15
ATOM     15  O7  UNL     1       1.115  98.856  94.180  0.00  0.00    +0.000 OA
ATOM     16  H16 UNL     1       2.001  98.492  93.850  0.00  0.00    +0.000 HD
ENDBRANCH   9  15
ENDBRANCH   1  12
BRANCH   4  17
ATOM     17  O3  UNL     1      -0.215 102.292 103.202  0.00  0.00    +0.000 OA
ATOM     18  H12 UNL     1       0.353 103.067 102.953  0.00  0.00    +0.000 HD
ENDBRANCH   4  17
BRANCH   3  19
ATOM     19  O4  UNL     1      -2.473 101.921 101.568  0.00  0.00    +0.000 OA
ATOM     20  H13 UNL     1      -2.685 102.887 101.644  0.00  0.00    +0.000 HD
ENDBRANCH   3  19
BRANCH   2  21
ATOM     21  O5  UNL     1      -2.124  99.850  99.944  0.00  0.00    +0.000 OA
ATOM     22  H14 UNL     1      -1.695  98.981  99.733  0.00  0.00    +0.000 HD
ENDBRANCH   2  21
BRANCH   5  23
ATOM     23  C12 UNL     1       2.156 102.453 101.876  0.00  0.00    +0.000 C 
BRANCH  23  24
ATOM     24  O2  UNL     1       2.794 102.218 103.102  0.00  0.00    +0.000 OA
ATOM     25  H11 UNL     1       2.139 102.462 103.805  0.00  0.00    +0.000 HD
ENDBRANCH  23  24
ENDBRANCH   5  23
TORSDOF 8
ENDMDL
MODEL 2
REMARK VINA RESULT:      -4.4      1.168      2.740
REMARK  Name = .\Catechins.pdb
REMARK  8 active torsions:
REMARK  status: ('A' for Active; 'I' for Inactive)
REMARK    1  A    between atoms: C3_3  and  O7_19
REMARK    2  A    between atoms: C4_4  and  O6_18
REMARK    3  A    between atoms: C6_6  and  C7_7
REMARK    4  A    between atoms: C8_8  and  O5_17
REMARK    5  A    between atoms: C9_9  and  O4_16
REMARK    6  A    between atoms: C10_10  and  O3_15
REMARK    7  A    between atoms: C11_11  and  C12_13
REMARK    8  A    between atoms: C12_13  and  O2_14
REMARK                            x       y       z     vdW  Elec       q    Type
REMARK                         _______ _______ _______ _____ _____    ______ ____
ROOT
ATOM      1  C7  UNL     1       0.238 100.967  99.892  0.00  0.00    +0.000 C 
ATOM      2  C8  UNL     1       1.542 101.412 100.604  0.00  0.00    +0.000 C 
ATOM      3  C9  UNL     1       1.377 101.381 102.149  0.00  0.00    +0.000 C 
ATOM      4  C10 UNL     1      -0.085 101.658 102.540  0.00  0.00    +0.000 C 
ATOM      5  C11 UNL     1      -1.041 100.636 101.830  0.00  0.00    +0.000 C 
ATOM      6  O1  UNL     1      -0.447 100.020 100.691  0.00  0.00    +0.000 OA
ENDROOT
BRANCH   1  12
ATOM      7  C1  UNL     1       1.660 100.805  97.797  0.00  0.00    +0.000 A 
ATOM      8  C2  UNL     1       1.928 100.264  96.537  0.00  0.00    +0.000 A 
ATOM      9  C3  UNL     1       1.089  99.279  95.999  0.00  0.00    +0.000 A 
ATOM     10  C4  UNL     1      -0.025  98.840  96.727  0.00  0.00    +0.000 A 
ATOM     11  C5  UNL     1      -0.293  99.383  97.992  0.00  0.00    +0.000 A 
ATOM     12  C6  UNL     1       0.555 100.359  98.543  0.00  0.00    +0.000 A 
BRANCH  10  13
ATOM     13  O6  UNL     1      -0.862  97.865  96.185  0.00  0.00    +0.000 OA
ATOM     14  H15 UNL     1      -0.939  96.944  96.599  0.00  0.00    +0.000 HD
ENDBRANCH  10  13
BRANCH   9  15
ATOM     15  O7  UNL     1       1.353  98.736  94.744  0.00  0.00    +0.000 OA
ATOM     16  H16 UNL     1       2.082  98.046  94.606  0.00  0.00    +0.000 HD
ENDBRANCH   9  15
ENDBRANCH   1  12
BRANCH   4  17
ATOM     17  O3  UNL     1      -0.230 101.617 103.938  0.00  0.00    +0.000 OA
ATOM     18  H12 UNL     1      -0.766 100.809 104.153  0.00  0.00    +0.000 HD
ENDBRANCH   4  17
BRANCH   3  19
ATOM     19  O4  UNL     1       2.225 102.318 102.762  0.00  0.00    +0.000 OA
ATOM     20  H13 UNL     1       3.154 102.033 102.561  0.00  0.00    +0.000 HD
ENDBRANCH   3  19
BRANCH   2  21
ATOM     21  O5  UNL     1       1.940 102.683 100.148  0.00  0.00    +0.000 OA
ATOM     22  H14 UNL     1       2.814 102.894 100.567  0.00  0.00    +0.000 HD
ENDBRANCH   2  21
BRANCH   5  23
ATOM     23  C12 UNL     1      -1.513  99.519 102.772  0.00  0.00    +0.000 C 
BRANCH  23  24
ATOM     24  O2  UNL     1      -2.440  98.701 102.112  0.00  0.00    +0.000 OA
ATOM     25  H11 UNL     1      -2.265  98.815 101.141  0.00  0.00    +0.000 HD
ENDBRANCH  23  24
ENDBRANCH   5  23
TORSDOF 8
ENDMDL
MODEL 3
REMARK VINA RESULT:      -4.4      2.702      7.529
REMARK  Name = .\Catechins.pdb
REMARK  8 active torsions:
REMARK  status: ('A' for Active; 'I' for Inactive)
REMARK    1  A    between atoms: C3_3  and  O7_19
REMARK    2  A    between atoms: C4_4  and  O6_18
REMARK    3  A    between atoms: C6_6  and  C7_7
REMARK    4  A    between atoms: C8_8  and  O5_17
REMARK    5  A    between atoms: C9_9  and  O4_16
REMARK    6  A    between atoms: C10_10  and  O3_15
REMARK    7  A    between atoms: C11_11  and  C12_13
REMARK    8  A    between atoms: C12_13  and  O2_14
REMARK                            x       y       z     vdW  Elec       q    Type
REMARK                         _______ _______ _______ _____ _____    ______ ____
ROOT
ATOM      1  C7  UNL     1       1.830 100.180  94.325  0.00  0.00    +0.000 C 
ATOM      2  C8  UNL     1       0.676  99.511  93.533  0.00  0.00    +0.000 C 
ATOM      3  C9  UNL     1       1.194  98.870  92.217  0.00  0.00    +0.000 C 
ATOM      4  C10 UNL     1       2.413  99.643  91.686  0.00  0.00    +0.000 C 
ATOM      5  C11 UNL     1       3.534  99.713  92.782  0.00  0.00    +0.000 C 
ATOM      6  O1  UNL     1       3.038  99.478  94.097  0.00  0.00    +0.000 OA
ENDROOT
BRANCH   1  12
ATOM      7  C1  UNL     1       2.353 100.870  96.709  0.00  0.00    +0.000 A 
ATOM      8  C2  UNL     1       2.081 100.847  98.080  0.00  0.00    +0.000 A 
ATOM      9  C3  UNL     1       0.978 100.132  98.567  0.00  0.00    +0.000 A 
ATOM     10  C4  UNL     1       0.151  99.435  97.677  0.00  0.00    +0.000 A 
ATOM     11  C5  UNL     1       0.425  99.460  96.302  0.00  0.00    +0.000 A 
ATOM     12  C6  UNL     1       1.519 100.189  95.805  0.00  0.00    +0.000 A 
BRANCH  10  13
ATOM     13  O6  UNL     1      -0.940  98.719  98.167  0.00  0.00    +0.000 OA
ATOM     14  H15 UNL     1      -1.760  99.187  98.534  0.00  0.00    +0.000 HD
ENDBRANCH  10  13
BRANCH   9  15
ATOM     15  O7  UNL     1       0.703 100.107  99.932  0.00  0.00    +0.000 OA
ATOM     16  H16 UNL     1       1.403 100.358 100.620  0.00  0.00    +0.000 HD
ENDBRANCH   9  15
ENDBRANCH   1  12
BRANCH   4  17
ATOM     17  O3  UNL     1       2.886  99.051  90.500  0.00  0.00    +0.000 OA
ATOM     18  H12 UNL     1       3.321  98.196  90.754  0.00  0.00    +0.000 HD
ENDBRANCH   4  17
BRANCH   3  19
ATOM     19  O4  UNL     1       0.182  98.838  91.244  0.00  0.00    +0.000 OA
ATOM     20  H13 UNL     1      -0.109  99.776  91.105  0.00  0.00    +0.000 HD
ENDBRANCH   3  19
BRANCH   2  21
ATOM     21  O5  UNL     1      -0.355 100.440  93.291  0.00  0.00    +0.000 OA
ATOM     22  H14 UNL     1      -0.952 100.441  94.083  0.00  0.00    +0.000 HD
ENDBRANCH   2  21
BRANCH   5  23
ATOM     23  C12 UNL     1       4.671  98.713  92.526  0.00  0.00    +0.000 C 
BRANCH  23  24
ATOM     24  O2  UNL     1       4.198  97.404  92.686  0.00  0.00    +0.000 OA
ATOM     25  H11 UNL     1       3.625  97.415  93.496  0.00  0.00    +0.000 HD
ENDBRANCH  23  24
ENDBRANCH   5  23
TORSDOF 8
ENDMDL
MODEL 4
REMARK VINA RESULT:      -4.2      1.515      3.042
REMARK  Name = .\Catechins.pdb
REMARK  8 active torsions:
REMARK  status: ('A' for Active; 'I' for Inactive)
REMARK    1  A    between atoms: C3_3  and  O7_19
REMARK    2  A    between atoms: C4_4  and  O6_18
REMARK    3  A    between atoms: C6_6  and  C7_7
REMARK    4  A    between atoms: C8_8  and  O5_17
REMARK    5  A    between atoms: C9_9  and  O4_16
REMARK    6  A    between atoms: C10_10  and  O3_15
REMARK    7  A    between atoms: C11_11  and  C12_13
REMARK    8  A    between atoms: C12_13  and  O2_14
REMARK                            x       y       z     vdW  Elec       q    Type
REMARK                         _______ _______ _______ _____ _____    ______ ____
ROOT
ATOM      1  C7  UNL     1       1.905 101.497  98.719  0.00  0.00    +0.000 C 
ATOM      2  C8  UNL     1       3.058 100.880  99.554  0.00  0.00    +0.000 C 
ATOM      3  C9  UNL     1       2.970 101.316 101.043  0.00  0.00    +0.000 C 
ATOM      4  C10 UNL     1       2.328 102.709 101.158  0.00  0.00    +0.000 C 
ATOM      5  C11 UNL     1       0.921 102.719 100.463  0.00  0.00    +0.000 C 
ATOM      6  O1  UNL     1       0.756 101.655  99.531  0.00  0.00    +0.000 OA
ENDROOT
BRANCH   1  12
ATOM      7  C1  UNL     1       2.301 100.719  96.338  0.00  0.00    +0.000 A 
ATOM      8  C2  UNL     1       1.970  99.922  95.238  0.00  0.00    +0.000 A 
ATOM      9  C3  UNL     1       0.903  99.016  95.318  0.00  0.00    +0.000 A 
ATOM     10  C4  UNL     1       0.164  98.915  96.503  0.00  0.00    +0.000 A 
ATOM     11  C5  UNL     1       0.497  99.714  97.607  0.00  0.00    +0.000 A 
ATOM     12  C6  UNL     1       1.576 100.612  97.538  0.00  0.00    +0.000 A 
BRANCH  10  13
ATOM     13  O6  UNL     1      -0.901  98.019  96.577  0.00  0.00    +0.000 OA
ATOM     14  H15 UNL     1      -0.755  97.038  96.785  0.00  0.00    +0.000 HD
ENDBRANCH  10  13
BRANCH   9  15
ATOM     15  O7  UNL     1       0.571  98.220  94.225  0.00  0.00    +0.000 OA
ATOM     16  H16 UNL     1       0.431  98.617  93.302  0.00  0.00    +0.000 HD
ENDBRANCH   9  15
ENDBRANCH   1  12
BRANCH   4  17
ATOM     17  O3  UNL     1       2.240 103.094 102.508  0.00  0.00    +0.000 OA
ATOM     18  H12 UNL     1       2.800 102.461 103.030  0.00  0.00    +0.000 HD
ENDBRANCH   4  17
BRANCH   3  19
ATOM     19  O4  UNL     1       4.242 101.321 101.638  0.00  0.00    +0.000 OA
ATOM     20  H13 UNL     1       4.195 101.953 102.402  0.00  0.00    +0.000 HD
ENDBRANCH   3  19
BRANCH   2  21
ATOM     21  O5  UNL     1       4.304 101.208  98.987  0.00  0.00    +0.000 OA
ATOM     22  H14 UNL     1       4.169 101.330  98.012  0.00  0.00    +0.000 HD
ENDBRANCH   2  21
BRANCH   5  23
ATOM     23  C12 UNL     1      -0.235 102.640 101.471  0.00  0.00    +0.000 C 
BRANCH  23  24
ATOM     24  O2  UNL     1      -0.251 101.377 102.077  0.00  0.00    +0.000 OA
ATOM     25  H11 UNL     1      -0.305 101.540 103.055  0.00  0.00    +0.000 HD
ENDBRANCH  23  24
ENDBRANCH   5  23
TORSDOF 8
ENDMDL
MODEL 5
REMARK VINA RESULT:      -4.1      1.975      2.857
REMARK  Name = .\Catechins.pdb
REMARK  8 active torsions:
REMARK  status: ('A' for Active; 'I' for Inactive)
REMARK    1  A    between atoms: C3_3  and  O7_19
REMARK    2  A    between atoms: C4_4  and  O6_18
REMARK    3  A    between atoms: C6_6  and  C7_7
REMARK    4  A    between atoms: C8_8  and  O5_17
REMARK    5  A    between atoms: C9_9  and  O4_16
REMARK    6  A    between atoms: C10_10  and  O3_15
REMARK    7  A    between atoms: C11_11  and  C12_13
REMARK    8  A    between atoms: C12_13  and  O2_14
REMARK                            x       y       z     vdW  Elec       q    Type
REMARK                         _______ _______ _______ _____ _____    ______ ____
ROOT
ATOM      1  C7  UNL     1       1.182  99.603  97.119  0.00  0.00    +0.000 C 
ATOM      2  C8  UNL     1      -0.222  99.675  97.776  0.00  0.00    +0.000 C 
ATOM      3  C9  UNL     1      -0.177 100.465  99.113  0.00  0.00    +0.000 C 
ATOM      4  C10 UNL     1       1.199 100.314  99.782  0.00  0.00    +0.000 C 
ATOM      5  C11 UNL     1       2.335 100.766  98.799  0.00  0.00    +0.000 C 
ATOM      6  O1  UNL     1       1.920 100.770  97.436  0.00  0.00    +0.000 OA
ENDROOT
BRANCH   1  12
ATOM      7  C1  UNL     1       1.919 100.181  94.762  0.00  0.00    +0.000 A 
ATOM      8  C2  UNL     1       1.776 100.084  93.375  0.00  0.00    +0.000 A 
ATOM      9  C3  UNL     1       0.762  99.288  92.824  0.00  0.00    +0.000 A 
ATOM     10  C4  UNL     1      -0.113  98.593  93.668  0.00  0.00    +0.000 A 
ATOM     11  C5  UNL     1       0.031  98.691  95.060  0.00  0.00    +0.000 A 
ATOM     12  C6  UNL     1       1.056  99.473  95.618  0.00  0.00    +0.000 A 
BRANCH  10  13
ATOM     13  O6  UNL     1      -1.125  97.809  93.116  0.00  0.00    +0.000 OA
ATOM     14  H15 UNL     1      -1.852  97.401  93.692  0.00  0.00    +0.000 HD
ENDBRANCH  10  13
BRANCH   9  15
ATOM     15  O7  UNL     1       0.617  99.188  91.443  0.00  0.00    +0.000 OA
ATOM     16  H16 UNL     1      -0.288  99.281  90.996  0.00  0.00    +0.000 HD
ENDBRANCH   9  15
ENDBRANCH   1  12
BRANCH   4  17
ATOM     17  O3  UNL     1       1.238 101.041 100.986  0.00  0.00    +0.000 OA
ATOM     18  H12 UNL     1       1.475 100.402 101.707  0.00  0.00    +0.000 HD
ENDBRANCH   4  17
BRANCH   3  19
ATOM     19  O4  UNL     1      -1.188 100.030  99.985  0.00  0.00    +0.000 OA
ATOM     20  H13 UNL     1      -1.606  99.236  99.562  0.00  0.00    +0.000 HD
ENDBRANCH   3  19
BRANCH   2  21
ATOM     21  O5  UNL     1      -0.747  98.381  97.953  0.00  0.00    +0.000 OA
ATOM     22  H14 UNL     1      -1.112  98.326  98.873  0.00  0.00    +0.000 HD
ENDBRANCH   2  21
BRANCH   5  23
ATOM     23  C12 UNL     1       2.875 102.167  99.126  0.00  0.00    +0.000 C 
BRANCH  23  24
ATOM     24  O2  UNL     1       1.894 103.129  98.850  0.00  0.00    +0.000 OA
ATOM     25  H11 UNL     1       2.246 103.676  98.100  0.00  0.00    +0.000 HD
ENDBRANCH  23  24
ENDBRANCH   5  23
TORSDOF 8
ENDMDL
MODEL 6
REMARK VINA RESULT:      -3.8      1.758      2.430
REMARK  Name = .\Catechins.pdb
REMARK  8 active torsions:
REMARK  status: ('A' for Active; 'I' for Inactive)
REMARK    1  A    between atoms: C3_3  and  O7_19
REMARK    2  A    between atoms: C4_4  and  O6_18
REMARK    3  A    between atoms: C6_6  and  C7_7
REMARK    4  A    between atoms: C8_8  and  O5_17
REMARK    5  A    between atoms: C9_9  and  O4_16
REMARK    6  A    between atoms: C10_10  and  O3_15
REMARK    7  A    between atoms: C11_11  and  C12_13
REMARK    8  A    between atoms: C12_13  and  O2_14
REMARK                            x       y       z     vdW  Elec       q    Type
REMARK                         _______ _______ _______ _____ _____    ______ ____
ROOT
ATOM      1  C7  UNL     1       1.343 100.449  98.607  0.00  0.00    +0.000 C 
ATOM      2  C8  UNL     1       0.106 100.638  99.524  0.00  0.00    +0.000 C 
ATOM      3  C9  UNL     1       0.298 101.845 100.483  0.00  0.00    +0.000 C 
ATOM      4  C10 UNL     1       1.788 102.041 100.811  0.00  0.00    +0.000 C 
ATOM      5  C11 UNL     1       2.619 102.207  99.491  0.00  0.00    +0.000 C 
ATOM      6  O1  UNL     1       1.942 101.704  98.343  0.00  0.00    +0.000 OA
ENDROOT
BRANCH   1  12
ATOM      7  C1  UNL     1      -0.158  98.915  97.253  0.00  0.00    +0.000 A 
ATOM      8  C2  UNL     1      -0.506  98.287  96.054  0.00  0.00    +0.000 A 
ATOM      9  C3  UNL     1       0.243  98.520  94.892  0.00  0.00    +0.000 A 
ATOM     10  C4  UNL     1       1.347  99.381  94.937  0.00  0.00    +0.000 A 
ATOM     11  C5  UNL     1       1.695 100.011  96.140  0.00  0.00    +0.000 A 
ATOM     12  C6  UNL     1       0.938  99.795  97.304  0.00  0.00    +0.000 A 
BRANCH  10  13
ATOM     13  O6  UNL     1       2.094  99.604  93.781  0.00  0.00    +0.000 OA
ATOM     14  H15 UNL     1       3.102  99.502  93.774  0.00  0.00    +0.000 HD
ENDBRANCH  10  13
BRANCH   9  15
ATOM     15  O7  UNL     1      -0.102  97.897  93.695  0.00  0.00    +0.000 OA
ATOM     16  H16 UNL     1       0.488  97.187  93.277  0.00  0.00    +0.000 HD
ENDBRANCH   9  15
ENDBRANCH   1  12
BRANCH   4  17
ATOM     17  O3  UNL     1       1.956 103.142 101.670  0.00  0.00    +0.000 OA
ATOM     18  H12 UNL     1       2.483 102.827 102.451  0.00  0.00    +0.000 HD
ENDBRANCH   4  17
BRANCH   3  19
ATOM     19  O4  UNL     1      -0.437 101.666 101.667  0.00  0.00    +0.000 OA
ATOM     20  H13 UNL     1       0.098 102.073 102.397  0.00  0.00    +0.000 HD
ENDBRANCH   3  19
BRANCH   2  21
ATOM     21  O5  UNL     1      -0.168  99.450 100.229  0.00  0.00    +0.000 OA
ATOM     22  H14 UNL     1      -0.435  98.762  99.567  0.00  0.00    +0.000 HD
ENDBRANCH   2  21
BRANCH   5  23
ATOM     23  C12 UNL     1       2.992 103.670  99.210  0.00  0.00    +0.000 C 
BRANCH  23  24
ATOM     24  O2  UNL     1       4.265 103.943  99.727  0.00  0.00    +0.000 OA
ATOM     25  H11 UNL     1       4.637 104.677  99.173  0.00  0.00    +0.000 HD
ENDBRANCH  23  24
ENDBRANCH   5  23
TORSDOF 8
ENDMDL
MODEL 7
REMARK VINA RESULT:      -3.8      1.560      3.350
REMARK  Name = .\Catechins.pdb
REMARK  8 active torsions:
REMARK  status: ('A' for Active; 'I' for Inactive)
REMARK    1  A    between atoms: C3_3  and  O7_19
REMARK    2  A    between atoms: C4_4  and  O6_18
REMARK    3  A    between atoms: C6_6  and  C7_7
REMARK    4  A    between atoms: C8_8  and  O5_17
REMARK    5  A    between atoms: C9_9  and  O4_16
REMARK    6  A    between atoms: C10_10  and  O3_15
REMARK    7  A    between atoms: C11_11  and  C12_13
REMARK    8  A    between atoms: C12_13  and  O2_14
REMARK                            x       y       z     vdW  Elec       q    Type
REMARK                         _______ _______ _______ _____ _____    ______ ____
ROOT
ATOM      1  C7  UNL     1       1.658 101.488  98.784  0.00  0.00    +0.000 C 
ATOM      2  C8  UNL     1       3.027 101.015  99.338  0.00  0.00    +0.000 C 
ATOM      3  C9  UNL     1       3.285 101.584 100.760  0.00  0.00    +0.000 C 
ATOM      4  C10 UNL     1       2.588 102.945 100.930  0.00  0.00    +0.000 C 
ATOM      5  C11 UNL     1       1.056 102.814 100.622  0.00  0.00    +0.000 C 
ATOM      6  O1  UNL     1       0.741 101.660  99.850  0.00  0.00    +0.000 OA
ENDROOT
BRANCH   1  12
ATOM      7  C1  UNL     1       0.018  99.662  98.143  0.00  0.00    +0.000 A 
ATOM      8  C2  UNL     1      -0.463  98.707  97.243  0.00  0.00    +0.000 A 
ATOM      9  C3  UNL     1       0.148  98.548  95.991  0.00  0.00    +0.000 A 
ATOM     10  C4  UNL     1       1.247  99.345  95.646  0.00  0.00    +0.000 A 
ATOM     11  C5  UNL     1       1.728 100.303  96.550  0.00  0.00    +0.000 A 
ATOM     12  C6  UNL     1       1.109 100.479  97.799  0.00  0.00    +0.000 A 
BRANCH  10  13
ATOM     13  O6  UNL     1       1.856  99.177  94.403  0.00  0.00    +0.000 OA
ATOM     14  H15 UNL     1       2.607  99.784  94.095  0.00  0.00    +0.000 HD
ENDBRANCH  10  13
BRANCH   9  15
ATOM     15  O7  UNL     1      -0.329  97.598  95.090  0.00  0.00    +0.000 OA
ATOM     16  H16 UNL     1      -0.730  96.722  95.405  0.00  0.00    +0.000 HD
ENDBRANCH   9  15
ENDBRANCH   1  12
BRANCH   4  17
ATOM     17  O3  UNL     1       2.815 103.450 102.223  0.00  0.00    +0.000 OA
ATOM     18  H12 UNL     1       1.933 103.711 102.595  0.00  0.00    +0.000 HD
ENDBRANCH   4  17
BRANCH   3  19
ATOM     19  O4  UNL     1       4.661 101.713 101.006  0.00  0.00    +0.000 OA
ATOM     20  H13 UNL     1       4.778 101.687 101.991  0.00  0.00    +0.000 HD
ENDBRANCH   3  19
BRANCH   2  21
ATOM     21  O5  UNL     1       4.061 101.354  98.445  0.00  0.00    +0.000 OA
ATOM     22  H14 UNL     1       3.685 101.976  97.770  0.00  0.00    +0.000 HD
ENDBRANCH   2  21
BRANCH   5  23
ATOM     23  C12 UNL     1       0.200 102.769 101.898  0.00  0.00    +0.000 C 
BRANCH  23  24
ATOM     24  O2  UNL     1       0.404 101.553 102.563  0.00  0.00    +0.000 OA
ATOM     25  H11 UNL     1       0.279 100.842 101.882  0.00  0.00    +0.000 HD
ENDBRANCH  23  24
ENDBRANCH   5  23
TORSDOF 8
ENDMDL
MODEL 8
REMARK VINA RESULT:      -3.6      2.032      2.908
REMARK  Name = .\Catechins.pdb
REMARK  8 active torsions:
REMARK  status: ('A' for Active; 'I' for Inactive)
REMARK    1  A    between atoms: C3_3  and  O7_19
REMARK    2  A    between atoms: C4_4  and  O6_18
REMARK    3  A    between atoms: C6_6  and  C7_7
REMARK    4  A    between atoms: C8_8  and  O5_17
REMARK    5  A    between atoms: C9_9  and  O4_16
REMARK    6  A    between atoms: C10_10  and  O3_15
REMARK    7  A    between atoms: C11_11  and  C12_13
REMARK    8  A    between atoms: C12_13  and  O2_14
REMARK                            x       y       z     vdW  Elec       q    Type
REMARK                         _______ _______ _______ _____ _____    ______ ____
ROOT
ATOM      1  C7  UNL     1       1.144 100.268  98.742  0.00  0.00    +0.000 C 
ATOM      2  C8  UNL     1      -0.392 100.122  98.580  0.00  0.00    +0.000 C 
ATOM      3  C9  UNL     1      -1.135 100.507  99.889  0.00  0.00    +0.000 C 
ATOM      4  C10 UNL     1      -0.256 100.205 101.115  0.00  0.00    +0.000 C 
ATOM      5  C11 UNL     1       1.125 100.939 100.990  0.00  0.00    +0.000 C 
ATOM      6  O1  UNL     1       1.434 101.315  99.651  0.00  0.00    +0.000 OA
ENDROOT
BRANCH   1  12
ATOM      7  C1  UNL     1       1.440  99.822  96.262  0.00  0.00    +0.000 A 
ATOM      8  C2  UNL     1       2.065 100.074  95.038  0.00  0.00    +0.000 A 
ATOM      9  C3  UNL     1       3.057 101.059  94.942  0.00  0.00    +0.000 A 
ATOM     10  C4  UNL     1       3.426 101.789  96.079  0.00  0.00    +0.000 A 
ATOM     11  C5  UNL     1       2.798 101.536  97.308  0.00  0.00    +0.000 A 
ATOM     12  C6  UNL     1       1.790 100.561  97.406  0.00  0.00    +0.000 A 
BRANCH  10  13
ATOM     13  O6  UNL     1       4.419 102.762  95.982  0.00  0.00    +0.000 OA
ATOM     14  H15 UNL     1       4.593 103.419  96.733  0.00  0.00    +0.000 HD
ENDBRANCH  10  13
BRANCH   9  15
ATOM     15  O7  UNL     1       3.682 101.314  93.724  0.00  0.00    +0.000 OA
ATOM     16  H16 UNL     1       4.164 102.187  93.547  0.00  0.00    +0.000 HD
ENDBRANCH   9  15
ENDBRANCH   1  12
BRANCH   4  17
ATOM     17  O3  UNL     1      -0.928 100.567 102.297  0.00  0.00    +0.000 OA
ATOM     18  H12 UNL     1      -0.898  99.781 102.903  0.00  0.00    +0.000 HD
ENDBRANCH   4  17
BRANCH   3  19
ATOM     19  O4  UNL     1      -2.357  99.823  99.992  0.00  0.00    +0.000 OA
ATOM     20  H13 UNL     1      -2.190  98.896  99.680  0.00  0.00    +0.000 HD
ENDBRANCH   3  19
BRANCH   2  21
ATOM     21  O5  UNL     1      -0.719  98.819  98.159  0.00  0.00    +0.000 OA
ATOM     22  H14 UNL     1      -0.594  98.212  98.933  0.00  0.00    +0.000 HD
ENDBRANCH   2  21
BRANCH   5  23
ATOM     23  C12 UNL     1       1.201 102.203 101.859  0.00  0.00    +0.000 C 
BRANCH  23  24
ATOM     24  O2  UNL     1       0.553 103.264 101.212  0.00  0.00    +0.000 OA
ATOM     25  H11 UNL     1       1.181 104.031 101.242  0.00  0.00    +0.000 HD
ENDBRANCH  23  24
ENDBRANCH   5  23
TORSDOF 8
ENDMDL
MODEL 9
REMARK VINA RESULT:      -3.5      1.853      2.518
REMARK  Name = .\Catechins.pdb
REMARK  8 active torsions:
REMARK  status: ('A' for Active; 'I' for Inactive)
REMARK    1  A    between atoms: C3_3  and  O7_19
REMARK    2  A    between atoms: C4_4  and  O6_18
REMARK    3  A    between atoms: C6_6  and  C7_7
REMARK    4  A    between atoms: C8_8  and  O5_17
REMARK    5  A    between atoms: C9_9  and  O4_16
REMARK    6  A    between atoms: C10_10  and  O3_15
REMARK    7  A    between atoms: C11_11  and  C12_13
REMARK    8  A    between atoms: C12_13  and  O2_14
REMARK                            x       y       z     vdW  Elec       q    Type
REMARK                         _______ _______ _______ _____ _____    ______ ____
ROOT
ATOM      1  C7  UNL     1       0.522 100.351  99.925  0.00  0.00    +0.000 C 
ATOM      2  C8  UNL     1      -0.938 100.454  99.408  0.00  0.00    +0.000 C 
ATOM      3  C9  UNL     1      -1.932 100.698 100.577  0.00  0.00    +0.000 C 
ATOM      4  C10 UNL     1      -1.405 100.059 101.873  0.00  0.00    +0.000 C 
ATOM      5  C11 UNL     1       0.029 100.602 102.204  0.00  0.00    +0.000 C 
ATOM      6  O1  UNL     1       0.684 101.166 101.072  0.00  0.00    +0.000 OA
ENDROOT
BRANCH   1  12
ATOM      7  C1  UNL     1       2.500 101.727  99.133  0.00  0.00    +0.000 A 
ATOM      8  C2  UNL     1       3.374 102.151  98.128  0.00  0.00    +0.000 A 
ATOM      9  C3  UNL     1       3.247 101.651  96.825  0.00  0.00    +0.000 A 
ATOM     10  C4  UNL     1       2.236 100.727  96.529  0.00  0.00    +0.000 A 
ATOM     11  C5  UNL     1       1.360 100.301  97.538  0.00  0.00    +0.000 A 
ATOM     12  C6  UNL     1       1.494 100.786  98.851  0.00  0.00    +0.000 A 
BRANCH  10  13
ATOM     13  O6  UNL     1       2.108 100.238  95.230  0.00  0.00    +0.000 OA
ATOM     14  H15 UNL     1       2.553  99.375  94.943  0.00  0.00    +0.000 HD
ENDBRANCH  10  13
BRANCH   9  15
ATOM     15  O7  UNL     1       4.116 102.071  95.821  0.00  0.00    +0.000 OA
ATOM     16  H16 UNL     1       4.346 101.474  95.034  0.00  0.00    +0.000 HD
ENDBRANCH   9  15
ENDBRANCH   1  12
BRANCH   4  17
ATOM     17  O3  UNL     1      -2.303 100.293 102.931  0.00  0.00    +0.000 OA
ATOM     18  H12 UNL     1      -1.991  99.755 103.704  0.00  0.00    +0.000 HD
ENDBRANCH   4  17
BRANCH   3  19
ATOM     19  O4  UNL     1      -3.202 100.185 100.269  0.00  0.00    +0.000 OA
ATOM     20  H13 UNL     1      -3.070  99.512  99.552  0.00  0.00    +0.000 HD
ENDBRANCH   3  19
BRANCH   2  21
ATOM     21  O5  UNL     1      -1.277  99.308  98.665  0.00  0.00    +0.000 OA
ATOM     22  H14 UNL     1      -1.010  98.514  99.197  0.00  0.00    +0.000 HD
ENDBRANCH   2  21
BRANCH   5  23
ATOM     23  C12 UNL     1       0.016 101.666 103.313  0.00  0.00    +0.000 C 
BRANCH  23  24
ATOM     24  O2  UNL     1       1.326 101.931 103.732  0.00  0.00    +0.000 OA
ATOM     25  H11 UNL     1       1.845 101.103 103.557  0.00  0.00    +0.000 HD
ENDBRANCH  23  24
ENDBRANCH   5  23
TORSDOF 8
ENDMDL
