MODEL 1
REMARK VINA RESULT:      -6.8      0.000      0.000
REMARK  Name = .\Catechins.pdb
REMARK  8 active torsions:
REMARK  status: ('A' for Active; 'I' for Inactive)
REMARK    1  A    between atoms: C3_3  and  O7_19
REMARK    2  A    between atoms: C4_4  and  O6_18
REMARK    3  A    between atoms: C6_6  and  C7_7
REMARK    4  A    between atoms: C8_8  and  O5_17
REMARK    5  A    between atoms: C9_9  and  O4_16
REMARK    6  A    between atoms: C10_10  and  O3_15
REMARK    7  A    between atoms: C11_11  and  C12_13
REMARK    8  A    between atoms: C12_13  and  O2_14
REMARK                            x       y       z     vdW  Elec       q    Type
REMARK                         _______ _______ _______ _____ _____    ______ ____
ROOT
ATOM      1  C7  UNL     1       9.936  76.053  63.365  0.00  0.00    +0.000 C 
ATOM      2  C8  UNL     1      10.191  77.451  62.743  0.00  0.00    +0.000 C 
ATOM      3  C9  UNL     1      10.606  77.335  61.250  0.00  0.00    +0.000 C 
ATOM      4  C10 UNL     1      11.350  76.013  61.001  0.00  0.00    +0.000 C 
ATOM      5  C11 UNL     1      10.469  74.798  61.457  0.00  0.00    +0.000 C 
ATOM      6  O1  UNL     1       9.445  75.169  62.374  0.00  0.00    +0.000 OA
ENDROOT
BRANCH   1  12
ATOM      7  C1  UNL     1       8.641  77.396  65.084  0.00  0.00    +0.000 A 
ATOM      8  C2  UNL     1       7.744  77.478  66.153  0.00  0.00    +0.000 A 
ATOM      9  C3  UNL     1       7.139  76.319  66.657  0.00  0.00    +0.000 A 
ATOM     10  C4  UNL     1       7.441  75.074  66.090  0.00  0.00    +0.000 A 
ATOM     11  C5  UNL     1       8.342  74.992  65.018  0.00  0.00    +0.000 A 
ATOM     12  C6  UNL     1       8.937  76.153  64.497  0.00  0.00    +0.000 A 
BRANCH  10  13
ATOM     13  O6  UNL     1       6.844  73.922  66.600  0.00  0.00    +0.000 OA
ATOM     14  H15 UNL     1       5.849  73.878  66.786  0.00  0.00    +0.000 HD
ENDBRANCH  10  13
BRANCH   9  15
ATOM     15  O7  UNL     1       6.244  76.396  67.721  0.00  0.00    +0.000 OA
ATOM     16  H16 UNL     1       5.945  77.288  68.099  0.00  0.00    +0.000 HD
ENDBRANCH   9  15
ENDBRANCH   1  12
BRANCH   4  17
ATOM     17  O3  UNL     1      11.714  75.907  59.645  0.00  0.00    +0.000 OA
ATOM     18  H12 UNL     1      12.705  75.877  59.610  0.00  0.00    +0.000 HD
ENDBRANCH   4  17
BRANCH   3  19
ATOM     19  O4  UNL     1      11.412  78.421  60.869  0.00  0.00    +0.000 OA
ATOM     20  H13 UNL     1      11.174  78.635  59.930  0.00  0.00    +0.000 HD
ENDBRANCH   3  19
BRANCH   2  21
ATOM     21  O5  UNL     1      11.148  78.157  63.498  0.00  0.00    +0.000 OA
ATOM     22  H14 UNL     1      11.709  78.674  62.865  0.00  0.00    +0.000 HD
ENDBRANCH   2  21
BRANCH   5  23
ATOM     23  C12 UNL     1       9.801  74.078  60.276  0.00  0.00    +0.000 C 
BRANCH  23  24
ATOM     24  O2  UNL     1       8.773  74.875  59.755  0.00  0.00    +0.000 OA
ATOM     25  H11 UNL     1       8.843  75.752  60.215  0.00  0.00    +0.000 HD
ENDBRANCH  23  24
ENDBRANCH   5  23
TORSDOF 8
ENDMDL
MODEL 2
REMARK VINA RESULT:      -6.5      0.652      1.558
REMARK  Name = .\Catechins.pdb
REMARK  8 active torsions:
REMARK  status: ('A' for Active; 'I' for Inactive)
REMARK    1  A    between atoms: C3_3  and  O7_19
REMARK    2  A    between atoms: C4_4  and  O6_18
REMARK    3  A    between atoms: C6_6  and  C7_7
REMARK    4  A    between atoms: C8_8  and  O5_17
REMARK    5  A    between atoms: C9_9  and  O4_16
REMARK    6  A    between atoms: C10_10  and  O3_15
REMARK    7  A    between atoms: C11_11  and  C12_13
REMARK    8  A    between atoms: C12_13  and  O2_14
REMARK                            x       y       z     vdW  Elec       q    Type
REMARK                         _______ _______ _______ _____ _____    ______ ____
ROOT
ATOM      1  C7  UNL     1      10.011  75.998  63.236  0.00  0.00    +0.000 C 
ATOM      2  C8  UNL     1      10.206  77.413  62.632  0.00  0.00    +0.000 C 
ATOM      3  C9  UNL     1      10.561  77.336  61.121  0.00  0.00    +0.000 C 
ATOM      4  C10 UNL     1      11.325  76.037  60.813  0.00  0.00    +0.000 C 
ATOM      5  C11 UNL     1      10.493  74.792  61.282  0.00  0.00    +0.000 C 
ATOM      6  O1  UNL     1       9.500  75.121  62.249  0.00  0.00    +0.000 OA
ENDROOT
BRANCH   1  12
ATOM      7  C1  UNL     1       8.388  74.894  64.842  0.00  0.00    +0.000 A 
ATOM      8  C2  UNL     1       7.484  74.957  65.906  0.00  0.00    +0.000 A 
ATOM      9  C3  UNL     1       7.230  76.178  66.546  0.00  0.00    +0.000 A 
ATOM     10  C4  UNL     1       7.881  77.339  66.111  0.00  0.00    +0.000 A 
ATOM     11  C5  UNL     1       8.788  77.276  65.044  0.00  0.00    +0.000 A 
ATOM     12  C6  UNL     1       9.060  76.051  64.410  0.00  0.00    +0.000 A 
BRANCH  10  13
ATOM     13  O6  UNL     1       7.619  78.554  66.744  0.00  0.00    +0.000 OA
ATOM     14  H15 UNL     1       7.017  79.252  66.324  0.00  0.00    +0.000 HD
ENDBRANCH  10  13
BRANCH   9  15
ATOM     15  O7  UNL     1       6.330  76.244  67.607  0.00  0.00    +0.000 OA
ATOM     16  H16 UNL     1       5.334  76.124  67.466  0.00  0.00    +0.000 HD
ENDBRANCH   9  15
ENDBRANCH   1  12
BRANCH   4  17
ATOM     17  O3  UNL     1      11.632  75.967  59.442  0.00  0.00    +0.000 OA
ATOM     18  H12 UNL     1      11.555  75.014  59.173  0.00  0.00    +0.000 HD
ENDBRANCH   4  17
BRANCH   3  19
ATOM     19  O4  UNL     1      11.323  78.448  60.728  0.00  0.00    +0.000 OA
ATOM     20  H13 UNL     1      12.074  78.099  60.182  0.00  0.00    +0.000 HD
ENDBRANCH   3  19
BRANCH   2  21
ATOM     21  O5  UNL     1      11.178  78.127  63.359  0.00  0.00    +0.000 OA
ATOM     22  H14 UNL     1      11.146  77.808  64.298  0.00  0.00    +0.000 HD
ENDBRANCH   2  21
BRANCH   5  23
ATOM     23  C12 UNL     1       9.792  74.079  60.116  0.00  0.00    +0.000 C 
BRANCH  23  24
ATOM     24  O2  UNL     1       8.729  74.863  59.650  0.00  0.00    +0.000 OA
ATOM     25  H11 UNL     1       8.999  75.808  59.792  0.00  0.00    +0.000 HD
ENDBRANCH  23  24
ENDBRANCH   5  23
TORSDOF 8
ENDMDL
MODEL 3
REMARK VINA RESULT:      -6.4      0.858      1.006
REMARK  Name = .\Catechins.pdb
REMARK  8 active torsions:
REMARK  status: ('A' for Active; 'I' for Inactive)
REMARK    1  A    between atoms: C3_3  and  O7_19
REMARK    2  A    between atoms: C4_4  and  O6_18
REMARK    3  A    between atoms: C6_6  and  C7_7
REMARK    4  A    between atoms: C8_8  and  O5_17
REMARK    5  A    between atoms: C9_9  and  O4_16
REMARK    6  A    between atoms: C10_10  and  O3_15
REMARK    7  A    between atoms: C11_11  and  C12_13
REMARK    8  A    between atoms: C12_13  and  O2_14
REMARK                            x       y       z     vdW  Elec       q    Type
REMARK                         _______ _______ _______ _____ _____    ______ ____
ROOT
ATOM      1  C7  UNL     1       9.880  75.824  63.242  0.00  0.00    +0.000 C 
ATOM      2  C8  UNL     1       9.909  77.350  62.966  0.00  0.00    +0.000 C 
ATOM      3  C9  UNL     1      10.381  77.651  61.517  0.00  0.00    +0.000 C 
ATOM      4  C10 UNL     1      11.347  76.559  61.028  0.00  0.00    +0.000 C 
ATOM      5  C11 UNL     1      10.675  75.146  61.142  0.00  0.00    +0.000 C 
ATOM      6  O1  UNL     1       9.576  75.126  62.048  0.00  0.00    +0.000 OA
ENDROOT
BRANCH   1  12
ATOM      7  C1  UNL     1       8.502  76.444  65.279  0.00  0.00    +0.000 A 
ATOM      8  C2  UNL     1       7.573  76.126  66.274  0.00  0.00    +0.000 A 
ATOM      9  C3  UNL     1       6.985  74.854  66.309  0.00  0.00    +0.000 A 
ATOM     10  C4  UNL     1       7.337  73.898  65.347  0.00  0.00    +0.000 A 
ATOM     11  C5  UNL     1       8.269  74.219  64.349  0.00  0.00    +0.000 A 
ATOM     12  C6  UNL     1       8.848  75.498  64.298  0.00  0.00    +0.000 A 
BRANCH  10  13
ATOM     13  O6  UNL     1       6.756  72.631  65.390  0.00  0.00    +0.000 OA
ATOM     14  H15 UNL     1       6.174  72.289  64.634  0.00  0.00    +0.000 HD
ENDBRANCH  10  13
BRANCH   9  15
ATOM     15  O7  UNL     1       6.058  74.532  67.297  0.00  0.00    +0.000 OA
ATOM     16  H16 UNL     1       5.505  75.246  67.758  0.00  0.00    +0.000 HD
ENDBRANCH   9  15
ENDBRANCH   1  12
BRANCH   4  17
ATOM     17  O3  UNL     1      11.762  76.830  59.711  0.00  0.00    +0.000 OA
ATOM     18  H12 UNL     1      11.696  75.980  59.203  0.00  0.00    +0.000 HD
ENDBRANCH   4  17
BRANCH   3  19
ATOM     19  O4  UNL     1      10.999  78.910  61.443  0.00  0.00    +0.000 OA
ATOM     20  H13 UNL     1      10.316  79.541  61.096  0.00  0.00    +0.000 HD
ENDBRANCH   3  19
BRANCH   2  21
ATOM     21  O5  UNL     1      10.710  78.006  63.922  0.00  0.00    +0.000 OA
ATOM     22  H14 UNL     1      11.218  77.312  64.416  0.00  0.00    +0.000 HD
ENDBRANCH   2  21
BRANCH   5  23
ATOM     23  C12 UNL     1      10.173  74.621  59.788  0.00  0.00    +0.000 C 
BRANCH  23  24
ATOM     24  O2  UNL     1       8.784  74.787  59.700  0.00  0.00    +0.000 OA
ATOM     25  H11 UNL     1       8.405  73.877  59.588  0.00  0.00    +0.000 HD
ENDBRANCH  23  24
ENDBRANCH   5  23
TORSDOF 8
ENDMDL
MODEL 4
REMARK VINA RESULT:      -6.4      1.643      6.325
REMARK  Name = .\Catechins.pdb
REMARK  8 active torsions:
REMARK  status: ('A' for Active; 'I' for Inactive)
REMARK    1  A    between atoms: C3_3  and  O7_19
REMARK    2  A    between atoms: C4_4  and  O6_18
REMARK    3  A    between atoms: C6_6  and  C7_7
REMARK    4  A    between atoms: C8_8  and  O5_17
REMARK    5  A    between atoms: C9_9  and  O4_16
REMARK    6  A    between atoms: C10_10  and  O3_15
REMARK    7  A    between atoms: C11_11  and  C12_13
REMARK    8  A    between atoms: C12_13  and  O2_14
REMARK                            x       y       z     vdW  Elec       q    Type
REMARK                         _______ _______ _______ _____ _____    ______ ____
ROOT
ATOM      1  C7  UNL     1       9.142  74.975  64.133  0.00  0.00    +0.000 C 
ATOM      2  C8  UNL     1       8.155  73.883  63.642  0.00  0.00    +0.000 C 
ATOM      3  C9  UNL     1       7.087  73.564  64.724  0.00  0.00    +0.000 C 
ATOM      4  C10 UNL     1       7.664  73.787  66.132  0.00  0.00    +0.000 C 
ATOM      5  C11 UNL     1       8.214  75.249  66.270  0.00  0.00    +0.000 C 
ATOM      6  O1  UNL     1       8.477  75.863  65.012  0.00  0.00    +0.000 OA
ENDROOT
BRANCH   1  12
ATOM      7  C1  UNL     1       9.948  75.104  61.731  0.00  0.00    +0.000 A 
ATOM      8  C2  UNL     1      10.499  75.813  60.660  0.00  0.00    +0.000 A 
ATOM      9  C3  UNL     1      10.824  77.169  60.804  0.00  0.00    +0.000 A 
ATOM     10  C4  UNL     1      10.601  77.812  62.028  0.00  0.00    +0.000 A 
ATOM     11  C5  UNL     1      10.047  77.100  63.103  0.00  0.00    +0.000 A 
ATOM     12  C6  UNL     1       9.703  75.745  62.959  0.00  0.00    +0.000 A 
BRANCH  10  13
ATOM     13  O6  UNL     1      10.933  79.159  62.170  0.00  0.00    +0.000 OA
ATOM     14  H15 UNL     1      10.271  79.832  62.538  0.00  0.00    +0.000 HD
ENDBRANCH  10  13
BRANCH   9  15
ATOM     15  O7  UNL     1      11.372  77.879  59.739  0.00  0.00    +0.000 OA
ATOM     16  H16 UNL     1      12.128  77.500  59.181  0.00  0.00    +0.000 HD
ENDBRANCH   9  15
ENDBRANCH   1  12
BRANCH   4  17
ATOM     17  O3  UNL     1       6.688  73.508  67.107  0.00  0.00    +0.000 OA
ATOM     18  H12 UNL     1       6.738  72.536  67.301  0.00  0.00    +0.000 HD
ENDBRANCH   4  17
BRANCH   3  19
ATOM     19  O4  UNL     1       6.624  72.244  64.596  0.00  0.00    +0.000 OA
ATOM     20  H13 UNL     1       7.341  71.735  64.136  0.00  0.00    +0.000 HD
ENDBRANCH   3  19
BRANCH   2  21
ATOM     21  O5  UNL     1       8.858  72.729  63.247  0.00  0.00    +0.000 OA
ATOM     22  H14 UNL     1       9.088  72.220  64.066  0.00  0.00    +0.000 HD
ENDBRANCH   2  21
BRANCH   5  23
ATOM     23  C12 UNL     1       7.260  76.168  67.047  0.00  0.00    +0.000 C 
BRANCH  23  24
ATOM     24  O2  UNL     1       5.962  76.049  66.532  0.00  0.00    +0.000 OA
ATOM     25  H11 UNL     1       5.398  75.721  67.279  0.00  0.00    +0.000 HD
ENDBRANCH  23  24
ENDBRANCH   5  23
TORSDOF 8
ENDMDL
MODEL 5
REMARK VINA RESULT:      -6.2      1.654      3.374
REMARK  Name = .\Catechins.pdb
REMARK  8 active torsions:
REMARK  status: ('A' for Active; 'I' for Inactive)
REMARK    1  A    between atoms: C3_3  and  O7_19
REMARK    2  A    between atoms: C4_4  and  O6_18
REMARK    3  A    between atoms: C6_6  and  C7_7
REMARK    4  A    between atoms: C8_8  and  O5_17
REMARK    5  A    between atoms: C9_9  and  O4_16
REMARK    6  A    between atoms: C10_10  and  O3_15
REMARK    7  A    between atoms: C11_11  and  C12_13
REMARK    8  A    between atoms: C12_13  and  O2_14
REMARK                            x       y       z     vdW  Elec       q    Type
REMARK                         _______ _______ _______ _____ _____    ______ ____
ROOT
ATOM      1  C7  UNL     1      10.357  77.213  62.688  0.00  0.00    +0.000 C 
ATOM      2  C8  UNL     1      10.418  76.035  61.680  0.00  0.00    +0.000 C 
ATOM      3  C9  UNL     1      11.719  76.087  60.833  0.00  0.00    +0.000 C 
ATOM      4  C10 UNL     1      12.187  77.541  60.654  0.00  0.00    +0.000 C 
ATOM      5  C11 UNL     1      12.373  78.229  62.052  0.00  0.00    +0.000 C 
ATOM      6  O1  UNL     1      11.667  77.565  63.095  0.00  0.00    +0.000 OA
ENDROOT
BRANCH   1  12
ATOM      7  C1  UNL     1       9.155  75.493  64.114  0.00  0.00    +0.000 A 
ATOM      8  C2  UNL     1       8.366  75.150  65.216  0.00  0.00    +0.000 A 
ATOM      9  C3  UNL     1       7.934  76.139  66.109  0.00  0.00    +0.000 A 
ATOM     10  C4  UNL     1       8.291  77.476  65.893  0.00  0.00    +0.000 A 
ATOM     11  C5  UNL     1       9.083  77.820  64.788  0.00  0.00    +0.000 A 
ATOM     12  C6  UNL     1       9.534  76.830  63.899  0.00  0.00    +0.000 A 
BRANCH  10  13
ATOM     13  O6  UNL     1       7.853  78.458  66.780  0.00  0.00    +0.000 OA
ATOM     14  H15 UNL     1       8.337  79.343  66.872  0.00  0.00    +0.000 HD
ENDBRANCH  10  13
BRANCH   9  15
ATOM     15  O7  UNL     1       7.148  75.801  67.209  0.00  0.00    +0.000 OA
ATOM     16  H16 UNL     1       6.424  75.095  67.146  0.00  0.00    +0.000 HD
ENDBRANCH   9  15
ENDBRANCH   1  12
BRANCH   4  17
ATOM     17  O3  UNL     1      13.372  77.582  59.897  0.00  0.00    +0.000 OA
ATOM     18  H12 UNL     1      14.087  77.171  60.449  0.00  0.00    +0.000 HD
ENDBRANCH   4  17
BRANCH   3  19
ATOM     19  O4  UNL     1      11.524  75.486  59.579  0.00  0.00    +0.000 OA
ATOM     20  H13 UNL     1      10.546  75.491  59.411  0.00  0.00    +0.000 HD
ENDBRANCH   3  19
BRANCH   2  21
ATOM     21  O5  UNL     1       9.267  76.023  60.869  0.00  0.00    +0.000 OA
ATOM     22  H14 UNL     1       9.463  76.565  60.061  0.00  0.00    +0.000 HD
ENDBRANCH   2  21
BRANCH   5  23
ATOM     23  C12 UNL     1      13.847  78.322  62.472  0.00  0.00    +0.000 C 
BRANCH  23  24
ATOM     24  O2  UNL     1      13.939  78.404  63.868  0.00  0.00    +0.000 OA
ATOM     25  H11 UNL     1      14.523  77.653  64.150  0.00  0.00    +0.000 HD
ENDBRANCH  23  24
ENDBRANCH   5  23
TORSDOF 8
ENDMDL
MODEL 6
REMARK VINA RESULT:      -6.2      1.526      3.105
REMARK  Name = .\Catechins.pdb
REMARK  8 active torsions:
REMARK  status: ('A' for Active; 'I' for Inactive)
REMARK    1  A    between atoms: C3_3  and  O7_19
REMARK    2  A    between atoms: C4_4  and  O6_18
REMARK    3  A    between atoms: C6_6  and  C7_7
REMARK    4  A    between atoms: C8_8  and  O5_17
REMARK    5  A    between atoms: C9_9  and  O4_16
REMARK    6  A    between atoms: C10_10  and  O3_15
REMARK    7  A    between atoms: C11_11  and  C12_13
REMARK    8  A    between atoms: C12_13  and  O2_14
REMARK                            x       y       z     vdW  Elec       q    Type
REMARK                         _______ _______ _______ _____ _____    ______ ____
ROOT
ATOM      1  C7  UNL     1       9.789  75.819  62.479  0.00  0.00    +0.000 C 
ATOM      2  C8  UNL     1       9.974  74.748  61.371  0.00  0.00    +0.000 C 
ATOM      3  C9  UNL     1      11.290  74.981  60.579  0.00  0.00    +0.000 C 
ATOM      4  C10 UNL     1      11.642  76.478  60.549  0.00  0.00    +0.000 C 
ATOM      5  C11 UNL     1      11.732  77.045  62.009  0.00  0.00    +0.000 C 
ATOM      6  O1  UNL     1      11.053  76.233  62.962  0.00  0.00    +0.000 OA
ENDROOT
BRANCH   1  12
ATOM      7  C1  UNL     1       8.848  75.966  64.830  0.00  0.00    +0.000 A 
ATOM      8  C2  UNL     1       8.115  75.430  65.892  0.00  0.00    +0.000 A 
ATOM      9  C3  UNL     1       7.500  74.178  65.764  0.00  0.00    +0.000 A 
ATOM     10  C4  UNL     1       7.626  73.459  64.568  0.00  0.00    +0.000 A 
ATOM     11  C5  UNL     1       8.362  73.998  63.502  0.00  0.00    +0.000 A 
ATOM     12  C6  UNL     1       8.966  75.261  63.619  0.00  0.00    +0.000 A 
BRANCH  10  13
ATOM     13  O6  UNL     1       7.020  72.210  64.447  0.00  0.00    +0.000 OA
ATOM     14  H15 UNL     1       7.445  71.375  64.833  0.00  0.00    +0.000 HD
ENDBRANCH  10  13
BRANCH   9  15
ATOM     15  O7  UNL     1       6.768  73.641  66.820  0.00  0.00    +0.000 OA
ATOM     16  H16 UNL     1       6.205  72.805  66.706  0.00  0.00    +0.000 HD
ENDBRANCH   9  15
ENDBRANCH   1  12
BRANCH   4  17
ATOM     17  O3  UNL     1      12.841  76.682  59.841  0.00  0.00    +0.000 OA
ATOM     18  H12 UNL     1      13.583  76.379  60.428  0.00  0.00    +0.000 HD
ENDBRANCH   4  17
BRANCH   3  19
ATOM     19  O4  UNL     1      11.180  74.486  59.269  0.00  0.00    +0.000 OA
ATOM     20  H13 UNL     1      10.239  74.628  58.990  0.00  0.00    +0.000 HD
ENDBRANCH   3  19
BRANCH   2  21
ATOM     21  O5  UNL     1       8.852  74.722  60.521  0.00  0.00    +0.000 OA
ATOM     22  H14 UNL     1       8.736  73.790  60.203  0.00  0.00    +0.000 HD
ENDBRANCH   2  21
BRANCH   5  23
ATOM     23  C12 UNL     1      13.182  77.214  62.488  0.00  0.00    +0.000 C 
BRANCH  23  24
ATOM     24  O2  UNL     1      13.234  78.167  63.515  0.00  0.00    +0.000 OA
ATOM     25  H11 UNL     1      13.156  79.052  63.074  0.00  0.00    +0.000 HD
ENDBRANCH  23  24
ENDBRANCH   5  23
TORSDOF 8
ENDMDL
MODEL 7
REMARK VINA RESULT:      -6.2      1.446      6.389
REMARK  Name = .\Catechins.pdb
REMARK  8 active torsions:
REMARK  status: ('A' for Active; 'I' for Inactive)
REMARK    1  A    between atoms: C3_3  and  O7_19
REMARK    2  A    between atoms: C4_4  and  O6_18
REMARK    3  A    between atoms: C6_6  and  C7_7
REMARK    4  A    between atoms: C8_8  and  O5_17
REMARK    5  A    between atoms: C9_9  and  O4_16
REMARK    6  A    between atoms: C10_10  and  O3_15
REMARK    7  A    between atoms: C11_11  and  C12_13
REMARK    8  A    between atoms: C12_13  and  O2_14
REMARK                            x       y       z     vdW  Elec       q    Type
REMARK                         _______ _______ _______ _____ _____    ______ ____
ROOT
ATOM      1  C7  UNL     1       9.023  75.828  64.856  0.00  0.00    +0.000 C 
ATOM      2  C8  UNL     1       8.161  74.571  65.146  0.00  0.00    +0.000 C 
ATOM      3  C9  UNL     1       6.963  74.914  66.074  0.00  0.00    +0.000 C 
ATOM      4  C10 UNL     1       7.324  76.079  67.010  0.00  0.00    +0.000 C 
ATOM      5  C11 UNL     1       7.790  77.324  66.176  0.00  0.00    +0.000 C 
ATOM      6  O1  UNL     1       8.204  76.983  64.857  0.00  0.00    +0.000 OA
ENDROOT
BRANCH   1  12
ATOM      7  C1  UNL     1      10.749  76.577  63.154  0.00  0.00    +0.000 A 
ATOM      8  C2  UNL     1      11.361  76.472  61.902  0.00  0.00    +0.000 A 
ATOM      9  C3  UNL     1      10.941  75.493  60.991  0.00  0.00    +0.000 A 
ATOM     10  C4  UNL     1       9.900  74.622  61.337  0.00  0.00    +0.000 A 
ATOM     11  C5  UNL     1       9.286  74.727  62.593  0.00  0.00    +0.000 A 
ATOM     12  C6  UNL     1       9.715  75.695  63.517  0.00  0.00    +0.000 A 
BRANCH  10  13
ATOM     13  O6  UNL     1       9.479  73.655  60.425  0.00  0.00    +0.000 OA
ATOM     14  H15 UNL     1       9.880  73.592  59.496  0.00  0.00    +0.000 HD
ENDBRANCH  10  13
BRANCH   9  15
ATOM     15  O7  UNL     1      11.549  75.384  59.743  0.00  0.00    +0.000 OA
ATOM     16  H16 UNL     1      12.532  75.591  59.612  0.00  0.00    +0.000 HD
ENDBRANCH   9  15
ENDBRANCH   1  12
BRANCH   4  17
ATOM     17  O3  UNL     1       6.231  76.393  67.840  0.00  0.00    +0.000 OA
ATOM     18  H12 UNL     1       6.199  75.705  68.554  0.00  0.00    +0.000 HD
ENDBRANCH   4  17
BRANCH   3  19
ATOM     19  O4  UNL     1       6.576  73.793  66.827  0.00  0.00    +0.000 OA
ATOM     20  H13 UNL     1       6.966  73.910  67.732  0.00  0.00    +0.000 HD
ENDBRANCH   3  19
BRANCH   2  21
ATOM     21  O5  UNL     1       8.959  73.542  65.683  0.00  0.00    +0.000 OA
ATOM     22  H14 UNL     1       9.622  73.961  66.291  0.00  0.00    +0.000 HD
ENDBRANCH   2  21
BRANCH   5  23
ATOM     23  C12 UNL     1       6.698  78.398  66.059  0.00  0.00    +0.000 C 
BRANCH  23  24
ATOM     24  O2  UNL     1       6.644  79.149  67.241  0.00  0.00    +0.000 OA
ATOM     25  H11 UNL     1       6.659  80.102  66.964  0.00  0.00    +0.000 HD
ENDBRANCH  23  24
ENDBRANCH   5  23
TORSDOF 8
ENDMDL
MODEL 8
REMARK VINA RESULT:      -6.1      1.464      6.633
REMARK  Name = .\Catechins.pdb
REMARK  8 active torsions:
REMARK  status: ('A' for Active; 'I' for Inactive)
REMARK    1  A    between atoms: C3_3  and  O7_19
REMARK    2  A    between atoms: C4_4  and  O6_18
REMARK    3  A    between atoms: C6_6  and  C7_7
REMARK    4  A    between atoms: C8_8  and  O5_17
REMARK    5  A    between atoms: C9_9  and  O4_16
REMARK    6  A    between atoms: C10_10  and  O3_15
REMARK    7  A    between atoms: C11_11  and  C12_13
REMARK    8  A    between atoms: C12_13  and  O2_14
REMARK                            x       y       z     vdW  Elec       q    Type
REMARK                         _______ _______ _______ _____ _____    ______ ____
ROOT
ATOM      1  C7  UNL     1       8.925  76.440  65.057  0.00  0.00    +0.000 C 
ATOM      2  C8  UNL     1       8.139  75.106  65.147  0.00  0.00    +0.000 C 
ATOM      3  C9  UNL     1       6.885  75.252  66.053  0.00  0.00    +0.000 C 
ATOM      4  C10 UNL     1       7.130  76.308  67.143  0.00  0.00    +0.000 C 
ATOM      5  C11 UNL     1       7.544  77.675  66.494  0.00  0.00    +0.000 C 
ATOM      6  O1  UNL     1       8.031  77.532  65.164  0.00  0.00    +0.000 OA
ENDROOT
BRANCH   1  12
ATOM      7  C1  UNL     1       9.760  75.406  62.896  0.00  0.00    +0.000 A 
ATOM      8  C2  UNL     1      10.484  75.478  61.702  0.00  0.00    +0.000 A 
ATOM      9  C3  UNL     1      11.142  76.664  61.348  0.00  0.00    +0.000 A 
ATOM     10  C4  UNL     1      11.079  77.776  62.196  0.00  0.00    +0.000 A 
ATOM     11  C5  UNL     1      10.352  77.703  63.393  0.00  0.00    +0.000 A 
ATOM     12  C6  UNL     1       9.676  76.523  63.746  0.00  0.00    +0.000 A 
BRANCH  10  13
ATOM     13  O6  UNL     1      11.742  78.950  61.843  0.00  0.00    +0.000 OA
ATOM     14  H15 UNL     1      12.565  79.266  62.345  0.00  0.00    +0.000 HD
ENDBRANCH  10  13
BRANCH   9  15
ATOM     15  O7  UNL     1      11.864  76.740  60.158  0.00  0.00    +0.000 OA
ATOM     16  H16 UNL     1      11.449  76.488  59.269  0.00  0.00    +0.000 HD
ENDBRANCH   9  15
ENDBRANCH   1  12
BRANCH   4  17
ATOM     17  O3  UNL     1       5.988  76.445  67.953  0.00  0.00    +0.000 OA
ATOM     18  H12 UNL     1       6.263  76.944  68.766  0.00  0.00    +0.000 HD
ENDBRANCH   4  17
BRANCH   3  19
ATOM     19  O4  UNL     1       6.546  74.022  66.640  0.00  0.00    +0.000 OA
ATOM     20  H13 UNL     1       5.715  73.714  66.193  0.00  0.00    +0.000 HD
ENDBRANCH   3  19
BRANCH   2  21
ATOM     21  O5  UNL     1       8.982  74.068  65.587  0.00  0.00    +0.000 OA
ATOM     22  H14 UNL     1       9.901  74.273  65.275  0.00  0.00    +0.000 HD
ENDBRANCH   2  21
BRANCH   5  23
ATOM     23  C12 UNL     1       6.388  78.686  66.462  0.00  0.00    +0.000 C 
BRANCH  23  24
ATOM     24  O2  UNL     1       6.309  79.356  67.691  0.00  0.00    +0.000 OA
ATOM     25  H11 UNL     1       7.054  80.012  67.696  0.00  0.00    +0.000 HD
ENDBRANCH  23  24
ENDBRANCH   5  23
TORSDOF 8
ENDMDL
MODEL 9
REMARK VINA RESULT:      -5.9      1.351      2.039
REMARK  Name = .\Catechins.pdb
REMARK  8 active torsions:
REMARK  status: ('A' for Active; 'I' for Inactive)
REMARK    1  A    between atoms: C3_3  and  O7_19
REMARK    2  A    between atoms: C4_4  and  O6_18
REMARK    3  A    between atoms: C6_6  and  C7_7
REMARK    4  A    between atoms: C8_8  and  O5_17
REMARK    5  A    between atoms: C9_9  and  O4_16
REMARK    6  A    between atoms: C10_10  and  O3_15
REMARK    7  A    between atoms: C11_11  and  C12_13
REMARK    8  A    between atoms: C12_13  and  O2_14
REMARK                            x       y       z     vdW  Elec       q    Type
REMARK                         _______ _______ _______ _____ _____    ______ ____
ROOT
ATOM      1  C7  UNL     1      10.005  76.203  62.736  0.00  0.00    +0.000 C 
ATOM      2  C8  UNL     1      10.089  77.737  62.952  0.00  0.00    +0.000 C 
ATOM      3  C9  UNL     1      10.331  78.482  61.611  0.00  0.00    +0.000 C 
ATOM      4  C10 UNL     1      11.127  77.595  60.639  0.00  0.00    +0.000 C 
ATOM      5  C11 UNL     1      10.390  76.227  60.422  0.00  0.00    +0.000 C 
ATOM      6  O1  UNL     1       9.459  75.929  61.458  0.00  0.00    +0.000 OA
ENDROOT
BRANCH   1  12
ATOM      7  C1  UNL     1       8.633  74.267  63.632  0.00  0.00    +0.000 A 
ATOM      8  C2  UNL     1       7.810  73.696  64.606  0.00  0.00    +0.000 A 
ATOM      9  C3  UNL     1       7.477  74.419  65.760  0.00  0.00    +0.000 A 
ATOM     10  C4  UNL     1       7.966  75.720  65.932  0.00  0.00    +0.000 A 
ATOM     11  C5  UNL     1       8.792  76.292  64.954  0.00  0.00    +0.000 A 
ATOM     12  C6  UNL     1       9.144  75.566  63.804  0.00  0.00    +0.000 A 
BRANCH  10  13
ATOM     13  O6  UNL     1       7.626  76.438  67.077  0.00  0.00    +0.000 OA
ATOM     14  H15 UNL     1       6.688  76.794  67.221  0.00  0.00    +0.000 HD
ENDBRANCH  10  13
BRANCH   9  15
ATOM     15  O7  UNL     1       6.658  73.853  66.734  0.00  0.00    +0.000 OA
ATOM     16  H16 UNL     1       6.609  72.849  66.870  0.00  0.00    +0.000 HD
ENDBRANCH   9  15
ENDBRANCH   1  12
BRANCH   4  17
ATOM     17  O3  UNL     1      11.332  78.271  59.421  0.00  0.00    +0.000 OA
ATOM     18  H12 UNL     1      10.666  77.918  58.775  0.00  0.00    +0.000 HD
ENDBRANCH   4  17
BRANCH   3  19
ATOM     19  O4  UNL     1      11.010  79.692  61.826  0.00  0.00    +0.000 OA
ATOM     20  H13 UNL     1      11.072  80.143  60.944  0.00  0.00    +0.000 HD
ENDBRANCH   3  19
BRANCH   2  21
ATOM     21  O5  UNL     1      11.080  78.043  63.905  0.00  0.00    +0.000 OA
ATOM     22  H14 UNL     1      11.899  77.540  63.661  0.00  0.00    +0.000 HD
ENDBRANCH   2  21
BRANCH   5  23
ATOM     23  C12 UNL     1       9.635  76.170  59.085  0.00  0.00    +0.000 C 
BRANCH  23  24
ATOM     24  O2  UNL     1       8.348  76.702  59.244  0.00  0.00    +0.000 OA
ATOM     25  H11 UNL     1       7.793  76.300  58.526  0.00  0.00    +0.000 HD
ENDBRANCH  23  24
ENDBRANCH   5  23
TORSDOF 8
ENDMDL
