MODEL 1
REMARK VINA RESULT:      -6.0      0.000      0.000
REMARK  Name = .\Catechins.pdb
REMARK  8 active torsions:
REMARK  status: ('A' for Active; 'I' for Inactive)
REMARK    1  A    between atoms: C3_3  and  O7_19
REMARK    2  A    between atoms: C4_4  and  O6_18
REMARK    3  A    between atoms: C6_6  and  C7_7
REMARK    4  A    between atoms: C8_8  and  O5_17
REMARK    5  A    between atoms: C9_9  and  O4_16
REMARK    6  A    between atoms: C10_10  and  O3_15
REMARK    7  A    between atoms: C11_11  and  C12_13
REMARK    8  A    between atoms: C12_13  and  O2_14
REMARK                            x       y       z     vdW  Elec       q    Type
REMARK                         _______ _______ _______ _____ _____    ______ ____
ROOT
ATOM      1  C7  UNL     1     -13.029  91.822 135.004  0.00  0.00    +0.000 C 
ATOM      2  C8  UNL     1     -13.515  91.016 133.770  0.00  0.00    +0.000 C 
ATOM      3  C9  UNL     1     -14.087  91.957 132.674  0.00  0.00    +0.000 C 
ATOM      4  C10 UNL     1     -14.697  93.217 133.312  0.00  0.00    +0.000 C 
ATOM      5  C11 UNL     1     -13.634  93.944 134.208  0.00  0.00    +0.000 C 
ATOM      6  O1  UNL     1     -12.558  93.092 134.592  0.00  0.00    +0.000 OA
ENDROOT
BRANCH   1  12
ATOM      7  C1  UNL     1     -10.681  90.865 135.093  0.00  0.00    +0.000 A 
ATOM      8  C2  UNL     1      -9.675  90.146 135.743  0.00  0.00    +0.000 A 
ATOM      9  C3  UNL     1      -9.899  89.619 137.022  0.00  0.00    +0.000 A 
ATOM     10  C4  UNL     1     -11.138  89.809 137.646  0.00  0.00    +0.000 A 
ATOM     11  C5  UNL     1     -12.148  90.531 136.993  0.00  0.00    +0.000 A 
ATOM     12  C6  UNL     1     -11.923  91.077 135.718  0.00  0.00    +0.000 A 
BRANCH  10  13
ATOM     13  O6  UNL     1     -11.360  89.276 138.915  0.00  0.00    +0.000 OA
ATOM     14  H15 UNL     1     -11.957  89.741 139.589  0.00  0.00    +0.000 HD
ENDBRANCH  10  13
BRANCH   9  15
ATOM     15  O7  UNL     1      -8.898  88.903 137.675  0.00  0.00    +0.000 OA
ATOM     16  H16 UNL     1      -8.244  89.356 138.303  0.00  0.00    +0.000 HD
ENDBRANCH   9  15
ENDBRANCH   1  12
BRANCH   4  17
ATOM     17  O3  UNL     1     -15.203  94.071 132.314  0.00  0.00    +0.000 OA
ATOM     18  H12 UNL     1     -15.238  93.548 131.471  0.00  0.00    +0.000 HD
ENDBRANCH   4  17
BRANCH   3  19
ATOM     19  O4  UNL     1     -15.052  91.294 131.899  0.00  0.00    +0.000 OA
ATOM     20  H13 UNL     1     -14.771  91.393 130.952  0.00  0.00    +0.000 HD
ENDBRANCH   3  19
BRANCH   2  21
ATOM     21  O5  UNL     1     -14.452  90.040 134.160  0.00  0.00    +0.000 OA
ATOM     22  H14 UNL     1     -13.966  89.343 134.672  0.00  0.00    +0.000 HD
ENDBRANCH   2  21
BRANCH   5  23
ATOM     23  C12 UNL     1     -13.030  95.178 133.522  0.00  0.00    +0.000 C 
BRANCH  23  24
ATOM     24  O2  UNL     1     -12.607  94.843 132.229  0.00  0.00    +0.000 OA
ATOM     25  H11 UNL     1     -11.744  95.314 132.090  0.00  0.00    +0.000 HD
ENDBRANCH  23  24
ENDBRANCH   5  23
TORSDOF 8
ENDMDL
MODEL 2
REMARK VINA RESULT:      -5.9      2.155      6.110
REMARK  Name = .\Catechins.pdb
REMARK  8 active torsions:
REMARK  status: ('A' for Active; 'I' for Inactive)
REMARK    1  A    between atoms: C3_3  and  O7_19
REMARK    2  A    between atoms: C4_4  and  O6_18
REMARK    3  A    between atoms: C6_6  and  C7_7
REMARK    4  A    between atoms: C8_8  and  O5_17
REMARK    5  A    between atoms: C9_9  and  O4_16
REMARK    6  A    between atoms: C10_10  and  O3_15
REMARK    7  A    between atoms: C11_11  and  C12_13
REMARK    8  A    between atoms: C12_13  and  O2_14
REMARK                            x       y       z     vdW  Elec       q    Type
REMARK                         _______ _______ _______ _____ _____    ______ ____
ROOT
ATOM      1  C7  UNL     1     -13.111  91.641 135.454  0.00  0.00    +0.000 C 
ATOM      2  C8  UNL     1     -11.795  91.976 136.204  0.00  0.00    +0.000 C 
ATOM      3  C9  UNL     1     -10.668  90.971 135.839  0.00  0.00    +0.000 C 
ATOM      4  C10 UNL     1     -11.265  89.595 135.495  0.00  0.00    +0.000 C 
ATOM      5  C11 UNL     1     -12.321  89.732 134.343  0.00  0.00    +0.000 C 
ATOM      6  O1  UNL     1     -12.813  91.061 134.197  0.00  0.00    +0.000 OA
ENDROOT
BRANCH   1  12
ATOM      7  C1  UNL     1     -15.302  92.913 135.596  0.00  0.00    +0.000 A 
ATOM      8  C2  UNL     1     -16.069  94.060 135.376  0.00  0.00    +0.000 A 
ATOM      9  C3  UNL     1     -15.487  95.198 134.801  0.00  0.00    +0.000 A 
ATOM     10  C4  UNL     1     -14.134  95.181 134.439  0.00  0.00    +0.000 A 
ATOM     11  C5  UNL     1     -13.365  94.030 134.660  0.00  0.00    +0.000 A 
ATOM     12  C6  UNL     1     -13.938  92.892 135.253  0.00  0.00    +0.000 A 
BRANCH  10  13
ATOM     13  O6  UNL     1     -13.562  96.312 133.859  0.00  0.00    +0.000 OA
ATOM     14  H15 UNL     1     -13.087  96.267 132.965  0.00  0.00    +0.000 HD
ENDBRANCH  10  13
BRANCH   9  15
ATOM     15  O7  UNL     1     -16.248  96.344 134.581  0.00  0.00    +0.000 OA
ATOM     16  H16 UNL     1     -15.944  97.254 134.908  0.00  0.00    +0.000 HD
ENDBRANCH   9  15
ENDBRANCH   1  12
BRANCH   4  17
ATOM     17  O3  UNL     1     -10.242  88.692 135.154  0.00  0.00    +0.000 OA
ATOM     18  H12 UNL     1     -10.664  87.803 135.033  0.00  0.00    +0.000 HD
ENDBRANCH   4  17
BRANCH   3  19
ATOM     19  O4  UNL     1      -9.748  90.847 136.892  0.00  0.00    +0.000 OA
ATOM     20  H13 UNL     1     -10.145  90.212 137.543  0.00  0.00    +0.000 HD
ENDBRANCH   3  19
BRANCH   2  21
ATOM     21  O5  UNL     1     -12.021  92.025 137.593  0.00  0.00    +0.000 OA
ATOM     22  H14 UNL     1     -11.236  91.618 138.041  0.00  0.00    +0.000 HD
ENDBRANCH   2  21
BRANCH   5  23
ATOM     23  C12 UNL     1     -11.767  89.287 132.981  0.00  0.00    +0.000 C 
BRANCH  23  24
ATOM     24  O2  UNL     1     -12.656  89.660 131.963  0.00  0.00    +0.000 OA
ATOM     25  H11 UNL     1     -12.187  90.351 131.427  0.00  0.00    +0.000 HD
ENDBRANCH  23  24
ENDBRANCH   5  23
TORSDOF 8
ENDMDL
MODEL 3
REMARK VINA RESULT:      -5.9      2.165      3.382
REMARK  Name = .\Catechins.pdb
REMARK  8 active torsions:
REMARK  status: ('A' for Active; 'I' for Inactive)
REMARK    1  A    between atoms: C3_3  and  O7_19
REMARK    2  A    between atoms: C4_4  and  O6_18
REMARK    3  A    between atoms: C6_6  and  C7_7
REMARK    4  A    between atoms: C8_8  and  O5_17
REMARK    5  A    between atoms: C9_9  and  O4_16
REMARK    6  A    between atoms: C10_10  and  O3_15
REMARK    7  A    between atoms: C11_11  and  C12_13
REMARK    8  A    between atoms: C12_13  and  O2_14
REMARK                            x       y       z     vdW  Elec       q    Type
REMARK                         _______ _______ _______ _____ _____    ______ ____
ROOT
ATOM      1  C7  UNL     1     -13.649  92.783 134.320  0.00  0.00    +0.000 C 
ATOM      2  C8  UNL     1     -12.953  94.161 134.157  0.00  0.00    +0.000 C 
ATOM      3  C9  UNL     1     -13.892  95.320 134.593  0.00  0.00    +0.000 C 
ATOM      4  C10 UNL     1     -15.362  94.941 134.350  0.00  0.00    +0.000 C 
ATOM      5  C11 UNL     1     -15.709  93.601 135.088  0.00  0.00    +0.000 C 
ATOM      6  O1  UNL     1     -14.555  92.829 135.407  0.00  0.00    +0.000 OA
ENDROOT
BRANCH   1  12
ATOM      7  C1  UNL     1     -12.589  90.551 133.749  0.00  0.00    +0.000 A 
ATOM      8  C2  UNL     1     -11.660  89.536 133.996  0.00  0.00    +0.000 A 
ATOM      9  C3  UNL     1     -10.760  89.648 135.065  0.00  0.00    +0.000 A 
ATOM     10  C4  UNL     1     -10.797  90.780 135.890  0.00  0.00    +0.000 A 
ATOM     11  C5  UNL     1     -11.729  91.798 135.641  0.00  0.00    +0.000 A 
ATOM     12  C6  UNL     1     -12.622  91.699 134.560  0.00  0.00    +0.000 A 
BRANCH  10  13
ATOM     13  O6  UNL     1      -9.906  90.884 136.956  0.00  0.00    +0.000 OA
ATOM     14  H15 UNL     1      -9.547  91.781 137.262  0.00  0.00    +0.000 HD
ENDBRANCH  10  13
BRANCH   9  15
ATOM     15  O7  UNL     1      -9.833  88.639 135.314  0.00  0.00    +0.000 OA
ATOM     16  H16 UNL     1      -9.487  88.456 136.249  0.00  0.00    +0.000 HD
ENDBRANCH   9  15
ENDBRANCH   1  12
BRANCH   4  17
ATOM     17  O3  UNL     1     -16.208  95.989 134.757  0.00  0.00    +0.000 OA
ATOM     18  H12 UNL     1     -16.608  96.379 133.937  0.00  0.00    +0.000 HD
ENDBRANCH   4  17
BRANCH   3  19
ATOM     19  O4  UNL     1     -13.578  96.503 133.904  0.00  0.00    +0.000 OA
ATOM     20  H13 UNL     1     -13.658  96.298 132.937  0.00  0.00    +0.000 HD
ENDBRANCH   3  19
BRANCH   2  21
ATOM     21  O5  UNL     1     -12.499  94.326 132.834  0.00  0.00    +0.000 OA
ATOM     22  H14 UNL     1     -12.850  93.569 132.298  0.00  0.00    +0.000 HD
ENDBRANCH   2  21
BRANCH   5  23
ATOM     23  C12 UNL     1     -16.492  93.830 136.389  0.00  0.00    +0.000 C 
BRANCH  23  24
ATOM     24  O2  UNL     1     -17.856  93.978 136.102  0.00  0.00    +0.000 OA
ATOM     25  H11 UNL     1     -18.047  93.363 135.346  0.00  0.00    +0.000 HD
ENDBRANCH  23  24
ENDBRANCH   5  23
TORSDOF 8
ENDMDL
MODEL 4
REMARK VINA RESULT:      -5.8      1.977      2.509
REMARK  Name = .\Catechins.pdb
REMARK  8 active torsions:
REMARK  status: ('A' for Active; 'I' for Inactive)
REMARK    1  A    between atoms: C3_3  and  O7_19
REMARK    2  A    between atoms: C4_4  and  O6_18
REMARK    3  A    between atoms: C6_6  and  C7_7
REMARK    4  A    between atoms: C8_8  and  O5_17
REMARK    5  A    between atoms: C9_9  and  O4_16
REMARK    6  A    between atoms: C10_10  and  O3_15
REMARK    7  A    between atoms: C11_11  and  C12_13
REMARK    8  A    between atoms: C12_13  and  O2_14
REMARK                            x       y       z     vdW  Elec       q    Type
REMARK                         _______ _______ _______ _____ _____    ______ ____
ROOT
ATOM      1  C7  UNL     1     -13.068  93.272 134.972  0.00  0.00    +0.000 C 
ATOM      2  C8  UNL     1     -14.521  92.940 135.403  0.00  0.00    +0.000 C 
ATOM      3  C9  UNL     1     -15.535  93.937 134.778  0.00  0.00    +0.000 C 
ATOM      4  C10 UNL     1     -14.877  95.311 134.565  0.00  0.00    +0.000 C 
ATOM      5  C11 UNL     1     -13.585  95.166 133.687  0.00  0.00    +0.000 C 
ATOM      6  O1  UNL     1     -13.070  93.838 133.674  0.00  0.00    +0.000 OA
ENDROOT
BRANCH   1  12
ATOM      7  C1  UNL     1     -12.402  91.020 134.012  0.00  0.00    +0.000 A 
ATOM      8  C2  UNL     1     -11.635  89.852 134.045  0.00  0.00    +0.000 A 
ATOM      9  C3  UNL     1     -10.680  89.664 135.054  0.00  0.00    +0.000 A 
ATOM     10  C4  UNL     1     -10.500  90.648 136.034  0.00  0.00    +0.000 A 
ATOM     11  C5  UNL     1     -11.269  91.820 135.999  0.00  0.00    +0.000 A 
ATOM     12  C6  UNL     1     -12.216  92.022 134.981  0.00  0.00    +0.000 A 
BRANCH  10  13
ATOM     13  O6  UNL     1      -9.555  90.453 137.040  0.00  0.00    +0.000 OA
ATOM     14  H15 UNL     1      -9.095  89.560 137.169  0.00  0.00    +0.000 HD
ENDBRANCH  10  13
BRANCH   9  15
ATOM     15  O7  UNL     1      -9.913  88.502 135.090  0.00  0.00    +0.000 OA
ATOM     16  H16 UNL     1      -9.997  87.834 135.848  0.00  0.00    +0.000 HD
ENDBRANCH   9  15
ENDBRANCH   1  12
BRANCH   4  17
ATOM     17  O3  UNL     1     -15.796  96.206 133.988  0.00  0.00    +0.000 OA
ATOM     18  H12 UNL     1     -16.385  95.676 133.389  0.00  0.00    +0.000 HD
ENDBRANCH   4  17
BRANCH   3  19
ATOM     19  O4  UNL     1     -16.673  94.068 135.590  0.00  0.00    +0.000 OA
ATOM     20  H13 UNL     1     -17.402  94.403 135.005  0.00  0.00    +0.000 HD
ENDBRANCH   3  19
BRANCH   2  21
ATOM     21  O5  UNL     1     -14.620  92.906 136.807  0.00  0.00    +0.000 OA
ATOM     22  H14 UNL     1     -13.738  92.629 137.165  0.00  0.00    +0.000 HD
ENDBRANCH   2  21
BRANCH   5  23
ATOM     23  C12 UNL     1     -13.811  95.594 132.230  0.00  0.00    +0.000 C 
BRANCH  23  24
ATOM     24  O2  UNL     1     -12.914  94.918 131.392  0.00  0.00    +0.000 OA
ATOM     25  H11 UNL     1     -13.465  94.485 130.689  0.00  0.00    +0.000 HD
ENDBRANCH  23  24
ENDBRANCH   5  23
TORSDOF 8
ENDMDL
MODEL 5
REMARK VINA RESULT:      -5.8      1.938      5.918
REMARK  Name = .\Catechins.pdb
REMARK  8 active torsions:
REMARK  status: ('A' for Active; 'I' for Inactive)
REMARK    1  A    between atoms: C3_3  and  O7_19
REMARK    2  A    between atoms: C4_4  and  O6_18
REMARK    3  A    between atoms: C6_6  and  C7_7
REMARK    4  A    between atoms: C8_8  and  O5_17
REMARK    5  A    between atoms: C9_9  and  O4_16
REMARK    6  A    between atoms: C10_10  and  O3_15
REMARK    7  A    between atoms: C11_11  and  C12_13
REMARK    8  A    between atoms: C12_13  and  O2_14
REMARK                            x       y       z     vdW  Elec       q    Type
REMARK                         _______ _______ _______ _____ _____    ______ ____
ROOT
ATOM      1  C7  UNL     1     -12.642  92.067 134.346  0.00  0.00    +0.000 C 
ATOM      2  C8  UNL     1     -13.403  90.755 134.019  0.00  0.00    +0.000 C 
ATOM      3  C9  UNL     1     -12.595  89.508 134.471  0.00  0.00    +0.000 C 
ATOM      4  C10 UNL     1     -11.085  89.794 134.409  0.00  0.00    +0.000 C 
ATOM      5  C11 UNL     1     -10.734  91.059 135.267  0.00  0.00    +0.000 C 
ATOM      6  O1  UNL     1     -11.863  91.891 135.516  0.00  0.00    +0.000 OA
ENDROOT
BRANCH   1  12
ATOM      7  C1  UNL     1     -14.879  92.975 135.121  0.00  0.00    +0.000 A 
ATOM      8  C2  UNL     1     -15.788  94.026 135.276  0.00  0.00    +0.000 A 
ATOM      9  C3  UNL     1     -15.452  95.318 134.851  0.00  0.00    +0.000 A 
ATOM     10  C4  UNL     1     -14.202  95.555 134.264  0.00  0.00    +0.000 A 
ATOM     11  C5  UNL     1     -13.290  94.500 134.110  0.00  0.00    +0.000 A 
ATOM     12  C6  UNL     1     -13.615  93.206 134.550  0.00  0.00    +0.000 A 
BRANCH  10  13
ATOM     13  O6  UNL     1     -13.875  96.840 133.835  0.00  0.00    +0.000 OA
ATOM     14  H15 UNL     1     -12.955  97.058 133.471  0.00  0.00    +0.000 HD
ENDBRANCH  10  13
BRANCH   9  15
ATOM     15  O7  UNL     1     -16.355  96.368 135.004  0.00  0.00    +0.000 OA
ATOM     16  H16 UNL     1     -16.291  97.209 134.442  0.00  0.00    +0.000 HD
ENDBRANCH   9  15
ENDBRANCH   1  12
BRANCH   4  17
ATOM     17  O3  UNL     1     -10.359  88.665 134.831  0.00  0.00    +0.000 OA
ATOM     18  H12 UNL     1     -10.624  87.909 134.244  0.00  0.00    +0.000 HD
ENDBRANCH   4  17
BRANCH   3  19
ATOM     19  O4  UNL     1     -12.908  88.394 133.676  0.00  0.00    +0.000 OA
ATOM     20  H13 UNL     1     -12.181  88.309 133.007  0.00  0.00    +0.000 HD
ENDBRANCH   3  19
BRANCH   2  21
ATOM     21  O5  UNL     1     -13.721  90.702 132.648  0.00  0.00    +0.000 OA
ATOM     22  H14 UNL     1     -12.896  90.912 132.139  0.00  0.00    +0.000 HD
ENDBRANCH   2  21
BRANCH   5  23
ATOM     23  C12 UNL     1     -10.113  90.697 136.625  0.00  0.00    +0.000 C 
BRANCH  23  24
ATOM     24  O2  UNL     1     -11.103  90.200 137.482  0.00  0.00    +0.000 OA
ATOM     25  H11 UNL     1     -10.625  89.711 138.202  0.00  0.00    +0.000 HD
ENDBRANCH  23  24
ENDBRANCH   5  23
TORSDOF 8
ENDMDL
MODEL 6
REMARK VINA RESULT:      -5.8      2.070      5.844
REMARK  Name = .\Catechins.pdb
REMARK  8 active torsions:
REMARK  status: ('A' for Active; 'I' for Inactive)
REMARK    1  A    between atoms: C3_3  and  O7_19
REMARK    2  A    between atoms: C4_4  and  O6_18
REMARK    3  A    between atoms: C6_6  and  C7_7
REMARK    4  A    between atoms: C8_8  and  O5_17
REMARK    5  A    between atoms: C9_9  and  O4_16
REMARK    6  A    between atoms: C10_10  and  O3_15
REMARK    7  A    between atoms: C11_11  and  C12_13
REMARK    8  A    between atoms: C12_13  and  O2_14
REMARK                            x       y       z     vdW  Elec       q    Type
REMARK                         _______ _______ _______ _____ _____    ______ ____
ROOT
ATOM      1  C7  UNL     1     -12.979  92.197 134.204  0.00  0.00    +0.000 C 
ATOM      2  C8  UNL     1     -13.668  90.860 133.823  0.00  0.00    +0.000 C 
ATOM      3  C9  UNL     1     -12.934  89.647 134.459  0.00  0.00    +0.000 C 
ATOM      4  C10 UNL     1     -11.436  89.953 134.626  0.00  0.00    +0.000 C 
ATOM      5  C11 UNL     1     -11.237  91.262 135.467  0.00  0.00    +0.000 C 
ATOM      6  O1  UNL     1     -12.398  92.087 135.491  0.00  0.00    +0.000 OA
ENDROOT
BRANCH   1  12
ATOM      7  C1  UNL     1     -13.934  94.320 133.196  0.00  0.00    +0.000 A 
ATOM      8  C2  UNL     1     -14.841  95.383 133.211  0.00  0.00    +0.000 A 
ATOM      9  C3  UNL     1     -15.800  95.478 134.229  0.00  0.00    +0.000 A 
ATOM     10  C4  UNL     1     -15.844  94.506 135.236  0.00  0.00    +0.000 A 
ATOM     11  C5  UNL     1     -14.934  93.439 135.221  0.00  0.00    +0.000 A 
ATOM     12  C6  UNL     1     -13.981  93.329 134.193  0.00  0.00    +0.000 A 
BRANCH  10  13
ATOM     13  O6  UNL     1     -16.794  94.609 136.251  0.00  0.00    +0.000 OA
ATOM     14  H15 UNL     1     -17.346  95.449 136.378  0.00  0.00    +0.000 HD
ENDBRANCH  10  13
BRANCH   9  15
ATOM     15  O7  UNL     1     -16.706  96.535 134.246  0.00  0.00    +0.000 OA
ATOM     16  H16 UNL     1     -16.447  97.462 133.928  0.00  0.00    +0.000 HD
ENDBRANCH   9  15
ENDBRANCH   1  12
BRANCH   4  17
ATOM     17  O3  UNL     1     -10.779  88.856 135.213  0.00  0.00    +0.000 OA
ATOM     18  H12 UNL     1     -10.354  88.341 134.478  0.00  0.00    +0.000 HD
ENDBRANCH   4  17
BRANCH   3  19
ATOM     19  O4  UNL     1     -13.107  88.492 133.679  0.00  0.00    +0.000 OA
ATOM     20  H13 UNL     1     -13.853  88.682 133.053  0.00  0.00    +0.000 HD
ENDBRANCH   3  19
BRANCH   2  21
ATOM     21  O5  UNL     1     -13.761  90.738 132.423  0.00  0.00    +0.000 OA
ATOM     22  H14 UNL     1     -12.839  90.651 132.067  0.00  0.00    +0.000 HD
ENDBRANCH   2  21
BRANCH   5  23
ATOM     23  C12 UNL     1     -10.840  90.973 136.922  0.00  0.00    +0.000 C 
BRANCH  23  24
ATOM     24  O2  UNL     1      -9.484  90.625 136.984  0.00  0.00    +0.000 OA
ATOM     25  H11 UNL     1      -9.019  91.397 137.400  0.00  0.00    +0.000 HD
ENDBRANCH  23  24
ENDBRANCH   5  23
TORSDOF 8
ENDMDL
MODEL 7
REMARK VINA RESULT:      -5.8      1.910      3.019
REMARK  Name = .\Catechins.pdb
REMARK  8 active torsions:
REMARK  status: ('A' for Active; 'I' for Inactive)
REMARK    1  A    between atoms: C3_3  and  O7_19
REMARK    2  A    between atoms: C4_4  and  O6_18
REMARK    3  A    between atoms: C6_6  and  C7_7
REMARK    4  A    between atoms: C8_8  and  O5_17
REMARK    5  A    between atoms: C9_9  and  O4_16
REMARK    6  A    between atoms: C10_10  and  O3_15
REMARK    7  A    between atoms: C11_11  and  C12_13
REMARK    8  A    between atoms: C12_13  and  O2_14
REMARK                            x       y       z     vdW  Elec       q    Type
REMARK                         _______ _______ _______ _____ _____    ______ ____
ROOT
ATOM      1  C7  UNL     1     -12.547  93.529 134.479  0.00  0.00    +0.000 C 
ATOM      2  C8  UNL     1     -13.442  93.891 135.693  0.00  0.00    +0.000 C 
ATOM      3  C9  UNL     1     -14.609  94.827 135.273  0.00  0.00    +0.000 C 
ATOM      4  C10 UNL     1     -14.191  95.704 134.080  0.00  0.00    +0.000 C 
ATOM      5  C11 UNL     1     -13.704  94.808 132.889  0.00  0.00    +0.000 C 
ATOM      6  O1  UNL     1     -13.330  93.496 133.299  0.00  0.00    +0.000 OA
ENDROOT
BRANCH   1  12
ATOM      7  C1  UNL     1     -12.182  91.101 133.842  0.00  0.00    +0.000 A 
ATOM      8  C2  UNL     1     -11.598  89.850 134.063  0.00  0.00    +0.000 A 
ATOM      9  C3  UNL     1     -10.723  89.661 135.141  0.00  0.00    +0.000 A 
ATOM     10  C4  UNL     1     -10.440  90.728 136.003  0.00  0.00    +0.000 A 
ATOM     11  C5  UNL     1     -11.026  91.983 135.781  0.00  0.00    +0.000 A 
ATOM     12  C6  UNL     1     -11.890  92.183 134.690  0.00  0.00    +0.000 A 
BRANCH  10  13
ATOM     13  O6  UNL     1      -9.576  90.533 137.080  0.00  0.00    +0.000 OA
ATOM     14  H15 UNL     1      -8.737  89.972 136.991  0.00  0.00    +0.000 HD
ENDBRANCH  10  13
BRANCH   9  15
ATOM     15  O7  UNL     1     -10.138  88.417 135.364  0.00  0.00    +0.000 OA
ATOM     16  H16 UNL     1     -10.022  87.743 134.616  0.00  0.00    +0.000 HD
ENDBRANCH   9  15
ENDBRANCH   1  12
BRANCH   4  17
ATOM     17  O3  UNL     1     -15.255  96.542 133.697  0.00  0.00    +0.000 OA
ATOM     18  H12 UNL     1     -15.025  96.918 132.807  0.00  0.00    +0.000 HD
ENDBRANCH   4  17
BRANCH   3  19
ATOM     19  O4  UNL     1     -15.013  95.636 136.348  0.00  0.00    +0.000 OA
ATOM     20  H13 UNL     1     -16.003  95.695 136.301  0.00  0.00    +0.000 HD
ENDBRANCH   3  19
BRANCH   2  21
ATOM     21  O5  UNL     1     -12.666  94.455 136.723  0.00  0.00    +0.000 OA
ATOM     22  H14 UNL     1     -11.712  94.296 136.503  0.00  0.00    +0.000 HD
ENDBRANCH   2  21
BRANCH   5  23
ATOM     23  C12 UNL     1     -14.764  94.667 131.786  0.00  0.00    +0.000 C 
BRANCH  23  24
ATOM     24  O2  UNL     1     -14.614  93.433 131.139  0.00  0.00    +0.000 OA
ATOM     25  H11 UNL     1     -15.231  93.452 130.361  0.00  0.00    +0.000 HD
ENDBRANCH  23  24
ENDBRANCH   5  23
TORSDOF 8
ENDMDL
MODEL 8
REMARK VINA RESULT:      -5.7      2.303      5.970
REMARK  Name = .\Catechins.pdb
REMARK  8 active torsions:
REMARK  status: ('A' for Active; 'I' for Inactive)
REMARK    1  A    between atoms: C3_3  and  O7_19
REMARK    2  A    between atoms: C4_4  and  O6_18
REMARK    3  A    between atoms: C6_6  and  C7_7
REMARK    4  A    between atoms: C8_8  and  O5_17
REMARK    5  A    between atoms: C9_9  and  O4_16
REMARK    6  A    between atoms: C10_10  and  O3_15
REMARK    7  A    between atoms: C11_11  and  C12_13
REMARK    8  A    between atoms: C12_13  and  O2_14
REMARK                            x       y       z     vdW  Elec       q    Type
REMARK                         _______ _______ _______ _____ _____    ______ ____
ROOT
ATOM      1  C7  UNL     1     -12.663  91.290 136.443  0.00  0.00    +0.000 C 
ATOM      2  C8  UNL     1     -11.309  90.597 136.139  0.00  0.00    +0.000 C 
ATOM      3  C9  UNL     1     -11.420  89.055 136.287  0.00  0.00    +0.000 C 
ATOM      4  C10 UNL     1     -12.481  88.691 137.340  0.00  0.00    +0.000 C 
ATOM      5  C11 UNL     1     -13.860  89.343 136.972  0.00  0.00    +0.000 C 
ATOM      6  O1  UNL     1     -13.732  90.439 136.071  0.00  0.00    +0.000 OA
ENDROOT
BRANCH   1  12
ATOM      7  C1  UNL     1     -11.822  92.937 134.707  0.00  0.00    +0.000 A 
ATOM      8  C2  UNL     1     -11.904  94.161 134.038  0.00  0.00    +0.000 A 
ATOM      9  C3  UNL     1     -12.926  95.068 134.350  0.00  0.00    +0.000 A 
ATOM     10  C4  UNL     1     -13.864  94.747 135.339  0.00  0.00    +0.000 A 
ATOM     11  C5  UNL     1     -13.781  93.518 136.010  0.00  0.00    +0.000 A 
ATOM     12  C6  UNL     1     -12.769  92.597 135.689  0.00  0.00    +0.000 A 
BRANCH  10  13
ATOM     13  O6  UNL     1     -14.874  95.655 135.652  0.00  0.00    +0.000 OA
ATOM     14  H15 UNL     1     -15.178  95.800 136.608  0.00  0.00    +0.000 HD
ENDBRANCH  10  13
BRANCH   9  15
ATOM     15  O7  UNL     1     -13.012  96.289 133.684  0.00  0.00    +0.000 OA
ATOM     16  H16 UNL     1     -13.852  96.854 133.720  0.00  0.00    +0.000 HD
ENDBRANCH   9  15
ENDBRANCH   1  12
BRANCH   4  17
ATOM     17  O3  UNL     1     -12.586  87.293 137.460  0.00  0.00    +0.000 OA
ATOM     18  H12 UNL     1     -13.512  87.093 137.760  0.00  0.00    +0.000 HD
ENDBRANCH   4  17
BRANCH   3  19
ATOM     19  O4  UNL     1     -10.181  88.495 136.637  0.00  0.00    +0.000 OA
ATOM     20  H13 UNL     1      -9.514  89.228 136.590  0.00  0.00    +0.000 HD
ENDBRANCH   3  19
BRANCH   2  21
ATOM     21  O5  UNL     1     -10.293  91.128 136.958  0.00  0.00    +0.000 OA
ATOM     22  H14 UNL     1     -10.331  90.656 137.829  0.00  0.00    +0.000 HD
ENDBRANCH   2  21
BRANCH   5  23
ATOM     23  C12 UNL     1     -14.840  88.338 136.349  0.00  0.00    +0.000 C 
BRANCH  23  24
ATOM     24  O2  UNL     1     -14.473  88.078 135.021  0.00  0.00    +0.000 OA
ATOM     25  H11 UNL     1     -15.321  87.961 134.519  0.00  0.00    +0.000 HD
ENDBRANCH  23  24
ENDBRANCH   5  23
TORSDOF 8
ENDMDL
MODEL 9
REMARK VINA RESULT:      -5.5      2.779      7.219
REMARK  Name = .\Catechins.pdb
REMARK  8 active torsions:
REMARK  status: ('A' for Active; 'I' for Inactive)
REMARK    1  A    between atoms: C3_3  and  O7_19
REMARK    2  A    between atoms: C4_4  and  O6_18
REMARK    3  A    between atoms: C6_6  and  C7_7
REMARK    4  A    between atoms: C8_8  and  O5_17
REMARK    5  A    between atoms: C9_9  and  O4_16
REMARK    6  A    between atoms: C10_10  and  O3_15
REMARK    7  A    between atoms: C11_11  and  C12_13
REMARK    8  A    between atoms: C12_13  and  O2_14
REMARK                            x       y       z     vdW  Elec       q    Type
REMARK                         _______ _______ _______ _____ _____    ______ ____
ROOT
ATOM      1  C7  UNL     1     -14.033  94.547 133.466  0.00  0.00    +0.000 C 
ATOM      2  C8  UNL     1     -14.845  93.386 132.835  0.00  0.00    +0.000 C 
ATOM      3  C9  UNL     1     -14.617  92.056 133.605  0.00  0.00    +0.000 C 
ATOM      4  C10 UNL     1     -13.211  92.030 134.228  0.00  0.00    +0.000 C 
ATOM      5  C11 UNL     1     -12.999  93.282 135.149  0.00  0.00    +0.000 C 
ATOM      6  O1  UNL     1     -13.906  94.342 134.861  0.00  0.00    +0.000 OA
ENDROOT
BRANCH   1  12
ATOM      7  C1  UNL     1     -15.829  96.266 133.971  0.00  0.00    +0.000 A 
ATOM      8  C2  UNL     1     -16.478  97.475 133.704  0.00  0.00    +0.000 A 
ATOM      9  C3  UNL     1     -16.032  98.300 132.663  0.00  0.00    +0.000 A 
ATOM     10  C4  UNL     1     -14.935  97.908 131.885  0.00  0.00    +0.000 A 
ATOM     11  C5  UNL     1     -14.284  96.695 132.153  0.00  0.00    +0.000 A 
ATOM     12  C6  UNL     1     -14.716  95.872 133.206  0.00  0.00    +0.000 A 
BRANCH  10  13
ATOM     13  O6  UNL     1     -14.500  98.728 130.845  0.00  0.00    +0.000 OA
ATOM     14  H15 UNL     1     -14.925  98.688 129.925  0.00  0.00    +0.000 HD
ENDBRANCH  10  13
BRANCH   9  15
ATOM     15  O7  UNL     1     -16.675  99.506 132.395  0.00  0.00    +0.000 OA
ATOM     16  H16 UNL     1     -17.569  99.736 132.814  0.00  0.00    +0.000 HD
ENDBRANCH   9  15
ENDBRANCH   1  12
BRANCH   4  17
ATOM     17  O3  UNL     1     -13.015  90.829 134.935  0.00  0.00    +0.000 OA
ATOM     18  H12 UNL     1     -13.906  90.522 135.244  0.00  0.00    +0.000 HD
ENDBRANCH   4  17
BRANCH   3  19
ATOM     19  O4  UNL     1     -14.790  90.950 132.758  0.00  0.00    +0.000 OA
ATOM     20  H13 UNL     1     -15.733  90.658 132.862  0.00  0.00    +0.000 HD
ENDBRANCH   3  19
BRANCH   2  21
ATOM     21  O5  UNL     1     -14.533  93.256 131.467  0.00  0.00    +0.000 OA
ATOM     22  H14 UNL     1     -15.139  92.570 131.084  0.00  0.00    +0.000 HD
ENDBRANCH   2  21
BRANCH   5  23
ATOM     23  C12 UNL     1     -13.133  92.946 136.642  0.00  0.00    +0.000 C 
BRANCH  23  24
ATOM     24  O2  UNL     1     -11.940  92.379 137.109  0.00  0.00    +0.000 OA
ATOM     25  H11 UNL     1     -11.990  91.412 136.892  0.00  0.00    +0.000 HD
ENDBRANCH  23  24
ENDBRANCH   5  23
TORSDOF 8
ENDMDL
