MODEL 1
REMARK VINA RESULT:      -4.5      0.000      0.000
REMARK  Name = .\Catechins.pdb
REMARK  8 active torsions:
REMARK  status: ('A' for Active; 'I' for Inactive)
REMARK    1  A    between atoms: C3_3  and  O7_19
REMARK    2  A    between atoms: C4_4  and  O6_18
REMARK    3  A    between atoms: C6_6  and  C7_7
REMARK    4  A    between atoms: C8_8  and  O5_17
REMARK    5  A    between atoms: C9_9  and  O4_16
REMARK    6  A    between atoms: C10_10  and  O3_15
REMARK    7  A    between atoms: C11_11  and  C12_13
REMARK    8  A    between atoms: C12_13  and  O2_14
REMARK                            x       y       z     vdW  Elec       q    Type
REMARK                         _______ _______ _______ _____ _____    ______ ____
ROOT
ATOM      1  C7  UNL     1     -24.605  40.534   6.048  0.00  0.00    +0.000 C 
ATOM      2  C8  UNL     1     -24.886  40.443   4.525  0.00  0.00    +0.000 C 
ATOM      3  C9  UNL     1     -24.289  39.143   3.919  0.00  0.00    +0.000 C 
ATOM      4  C10 UNL     1     -23.038  38.710   4.702  0.00  0.00    +0.000 C 
ATOM      5  C11 UNL     1     -23.378  38.542   6.224  0.00  0.00    +0.000 C 
ATOM      6  O1  UNL     1     -24.564  39.233   6.607  0.00  0.00    +0.000 OA
ENDROOT
BRANCH   1  12
ATOM      7  C1  UNL     1     -25.715  41.449   8.137  0.00  0.00    +0.000 A 
ATOM      8  C2  UNL     1     -26.729  42.175   8.768  0.00  0.00    +0.000 A 
ATOM      9  C3  UNL     1     -27.727  42.800   8.008  0.00  0.00    +0.000 A 
ATOM     10  C4  UNL     1     -27.710  42.690   6.612  0.00  0.00    +0.000 A 
ATOM     11  C5  UNL     1     -26.692  41.962   5.979  0.00  0.00    +0.000 A 
ATOM     12  C6  UNL     1     -25.678  41.348   6.735  0.00  0.00    +0.000 A 
BRANCH  10  13
ATOM     13  O6  UNL     1     -28.709  43.306   5.860  0.00  0.00    +0.000 OA
ATOM     14  H15 UNL     1     -28.508  44.094   5.255  0.00  0.00    +0.000 HD
ENDBRANCH  10  13
BRANCH   9  15
ATOM     15  O7  UNL     1     -28.739  43.525   8.633  0.00  0.00    +0.000 OA
ATOM     16  H16 UNL     1     -29.304  43.120   9.371  0.00  0.00    +0.000 HD
ENDBRANCH   9  15
ENDBRANCH   1  12
BRANCH   4  17
ATOM     17  O3  UNL     1     -22.508  37.525   4.157  0.00  0.00    +0.000 OA
ATOM     18  H12 UNL     1     -22.071  37.032   4.899  0.00  0.00    +0.000 HD
ENDBRANCH   4  17
BRANCH   3  19
ATOM     19  O4  UNL     1     -23.971  39.322   2.563  0.00  0.00    +0.000 OA
ATOM     20  H13 UNL     1     -22.984  39.402   2.511  0.00  0.00    +0.000 HD
ENDBRANCH   3  19
BRANCH   2  21
ATOM     21  O5  UNL     1     -24.405  41.592   3.868  0.00  0.00    +0.000 OA
ATOM     22  H14 UNL     1     -23.492  41.390   3.537  0.00  0.00    +0.000 HD
ENDBRANCH   2  21
BRANCH   5  23
ATOM     23  C12 UNL     1     -23.544  37.071   6.633  0.00  0.00    +0.000 C 
BRANCH  23  24
ATOM     24  O2  UNL     1     -24.695  36.539   6.037  0.00  0.00    +0.000 OA
ATOM     25  H11 UNL     1     -25.260  36.201   6.780  0.00  0.00    +0.000 HD
ENDBRANCH  23  24
ENDBRANCH   5  23
TORSDOF 8
ENDMDL
MODEL 2
REMARK VINA RESULT:      -4.4      1.643      2.126
REMARK  Name = .\Catechins.pdb
REMARK  8 active torsions:
REMARK  status: ('A' for Active; 'I' for Inactive)
REMARK    1  A    between atoms: C3_3  and  O7_19
REMARK    2  A    between atoms: C4_4  and  O6_18
REMARK    3  A    between atoms: C6_6  and  C7_7
REMARK    4  A    between atoms: C8_8  and  O5_17
REMARK    5  A    between atoms: C9_9  and  O4_16
REMARK    6  A    between atoms: C10_10  and  O3_15
REMARK    7  A    between atoms: C11_11  and  C12_13
REMARK    8  A    between atoms: C12_13  and  O2_14
REMARK                            x       y       z     vdW  Elec       q    Type
REMARK                         _______ _______ _______ _____ _____    ______ ____
ROOT
ATOM      1  C7  UNL     1     -25.325  39.581   5.760  0.00  0.00    +0.000 C 
ATOM      2  C8  UNL     1     -24.063  40.202   5.105  0.00  0.00    +0.000 C 
ATOM      3  C9  UNL     1     -23.677  39.447   3.803  0.00  0.00    +0.000 C 
ATOM      4  C10 UNL     1     -24.096  37.970   3.892  0.00  0.00    +0.000 C 
ATOM      5  C11 UNL     1     -25.630  37.857   4.199  0.00  0.00    +0.000 C 
ATOM      6  O1  UNL     1     -26.173  39.049   4.759  0.00  0.00    +0.000 OA
ENDROOT
BRANCH   1  12
ATOM      7  C1  UNL     1     -26.209  40.502   7.952  0.00  0.00    +0.000 A 
ATOM      8  C2  UNL     1     -26.931  41.451   8.680  0.00  0.00    +0.000 A 
ATOM      9  C3  UNL     1     -27.538  42.531   8.024  0.00  0.00    +0.000 A 
ATOM     10  C4  UNL     1     -27.424  42.654   6.633  0.00  0.00    +0.000 A 
ATOM     11  C5  UNL     1     -26.699  41.701   5.903  0.00  0.00    +0.000 A 
ATOM     12  C6  UNL     1     -26.074  40.625   6.558  0.00  0.00    +0.000 A 
BRANCH  10  13
ATOM     13  O6  UNL     1     -28.035  43.725   5.983  0.00  0.00    +0.000 OA
ATOM     14  H15 UNL     1     -27.492  44.477   5.576  0.00  0.00    +0.000 HD
ENDBRANCH  10  13
BRANCH   9  15
ATOM     15  O7  UNL     1     -28.257  43.480   8.746  0.00  0.00    +0.000 OA
ATOM     16  H16 UNL     1     -28.607  44.326   8.310  0.00  0.00    +0.000 HD
ENDBRANCH   9  15
ENDBRANCH   1  12
BRANCH   4  17
ATOM     17  O3  UNL     1     -23.755  37.295   2.706  0.00  0.00    +0.000 OA
ATOM     18  H12 UNL     1     -23.217  36.502   2.965  0.00  0.00    +0.000 HD
ENDBRANCH   4  17
BRANCH   3  19
ATOM     19  O4  UNL     1     -22.298  39.544   3.559  0.00  0.00    +0.000 OA
ATOM     20  H13 UNL     1     -22.144  40.431   3.143  0.00  0.00    +0.000 HD
ENDBRANCH   3  19
BRANCH   2  21
ATOM     21  O5  UNL     1     -22.998  40.233   6.025  0.00  0.00    +0.000 OA
ATOM     22  H14 UNL     1     -23.380  40.113   6.932  0.00  0.00    +0.000 HD
ENDBRANCH   2  21
BRANCH   5  23
ATOM     23  C12 UNL     1     -26.457  37.508   2.953  0.00  0.00    +0.000 C 
BRANCH  23  24
ATOM     24  O2  UNL     1     -26.356  38.541   2.012  0.00  0.00    +0.000 OA
ATOM     25  H11 UNL     1     -25.564  38.329   1.452  0.00  0.00    +0.000 HD
ENDBRANCH  23  24
ENDBRANCH   5  23
TORSDOF 8
ENDMDL
MODEL 3
REMARK VINA RESULT:      -4.4      2.338      3.157
REMARK  Name = .\Catechins.pdb
REMARK  8 active torsions:
REMARK  status: ('A' for Active; 'I' for Inactive)
REMARK    1  A    between atoms: C3_3  and  O7_19
REMARK    2  A    between atoms: C4_4  and  O6_18
REMARK    3  A    between atoms: C6_6  and  C7_7
REMARK    4  A    between atoms: C8_8  and  O5_17
REMARK    5  A    between atoms: C9_9  and  O4_16
REMARK    6  A    between atoms: C10_10  and  O3_15
REMARK    7  A    between atoms: C11_11  and  C12_13
REMARK    8  A    between atoms: C12_13  and  O2_14
REMARK                            x       y       z     vdW  Elec       q    Type
REMARK                         _______ _______ _______ _____ _____    ______ ____
ROOT
ATOM      1  C7  UNL     1     -24.044  38.521   4.560  0.00  0.00    +0.000 C 
ATOM      2  C8  UNL     1     -23.663  39.242   3.241  0.00  0.00    +0.000 C 
ATOM      3  C9  UNL     1     -24.096  38.413   2.000  0.00  0.00    +0.000 C 
ATOM      4  C10 UNL     1     -24.074  36.910   2.324  0.00  0.00    +0.000 C 
ATOM      5  C11 UNL     1     -24.977  36.608   3.572  0.00  0.00    +0.000 C 
ATOM      6  O1  UNL     1     -25.225  37.763   4.368  0.00  0.00    +0.000 OA
ENDROOT
BRANCH   1  12
ATOM      7  C1  UNL     1     -23.273  39.737   6.648  0.00  0.00    +0.000 A 
ATOM      8  C2  UNL     1     -23.492  40.642   7.690  0.00  0.00    +0.000 A 
ATOM      9  C3  UNL     1     -24.704  41.341   7.775  0.00  0.00    +0.000 A 
ATOM     10  C4  UNL     1     -25.700  41.126   6.814  0.00  0.00    +0.000 A 
ATOM     11  C5  UNL     1     -25.480  40.217   5.768  0.00  0.00    +0.000 A 
ATOM     12  C6  UNL     1     -24.260  39.526   5.669  0.00  0.00    +0.000 A 
BRANCH  10  13
ATOM     13  O6  UNL     1     -26.907  41.817   6.906  0.00  0.00    +0.000 OA
ATOM     14  H15 UNL     1     -26.963  42.812   6.725  0.00  0.00    +0.000 HD
ENDBRANCH  10  13
BRANCH   9  15
ATOM     15  O7  UNL     1     -24.925  42.245   8.811  0.00  0.00    +0.000 OA
ATOM     16  H16 UNL     1     -25.514  42.012   9.602  0.00  0.00    +0.000 HD
ENDBRANCH   9  15
ENDBRANCH   1  12
BRANCH   4  17
ATOM     17  O3  UNL     1     -24.479  36.165   1.201  0.00  0.00    +0.000 OA
ATOM     18  H12 UNL     1     -25.335  35.720   1.438  0.00  0.00    +0.000 HD
ENDBRANCH   4  17
BRANCH   3  19
ATOM     19  O4  UNL     1     -23.262  38.682   0.903  0.00  0.00    +0.000 OA
ATOM     20  H13 UNL     1     -22.633  39.393   1.191  0.00  0.00    +0.000 HD
ENDBRANCH   3  19
BRANCH   2  21
ATOM     21  O5  UNL     1     -22.284  39.530   3.220  0.00  0.00    +0.000 OA
ATOM     22  H14 UNL     1     -21.979  39.608   4.161  0.00  0.00    +0.000 HD
ENDBRANCH   2  21
BRANCH   5  23
ATOM     23  C12 UNL     1     -26.336  36.007   3.185  0.00  0.00    +0.000 C 
BRANCH  23  24
ATOM     24  O2  UNL     1     -27.126  36.982   2.561  0.00  0.00    +0.000 OA
ATOM     25  H11 UNL     1     -26.536  37.437   1.906  0.00  0.00    +0.000 HD
ENDBRANCH  23  24
ENDBRANCH   5  23
TORSDOF 8
ENDMDL
MODEL 4
REMARK VINA RESULT:      -4.3      1.861      6.420
REMARK  Name = .\Catechins.pdb
REMARK  8 active torsions:
REMARK  status: ('A' for Active; 'I' for Inactive)
REMARK    1  A    between atoms: C3_3  and  O7_19
REMARK    2  A    between atoms: C4_4  and  O6_18
REMARK    3  A    between atoms: C6_6  and  C7_7
REMARK    4  A    between atoms: C8_8  and  O5_17
REMARK    5  A    between atoms: C9_9  and  O4_16
REMARK    6  A    between atoms: C10_10  and  O3_15
REMARK    7  A    between atoms: C11_11  and  C12_13
REMARK    8  A    between atoms: C12_13  and  O2_14
REMARK                            x       y       z     vdW  Elec       q    Type
REMARK                         _______ _______ _______ _____ _____    ______ ____
ROOT
ATOM      1  C7  UNL     1     -24.898  40.114   5.177  0.00  0.00    +0.000 C 
ATOM      2  C8  UNL     1     -25.040  39.228   6.443  0.00  0.00    +0.000 C 
ATOM      3  C9  UNL     1     -25.901  39.931   7.528  0.00  0.00    +0.000 C 
ATOM      4  C10 UNL     1     -25.752  41.458   7.427  0.00  0.00    +0.000 C 
ATOM      5  C11 UNL     1     -26.121  41.947   5.982  0.00  0.00    +0.000 C 
ATOM      6  O1  UNL     1     -26.061  40.905   5.012  0.00  0.00    +0.000 OA
ENDROOT
BRANCH   1  12
ATOM      7  C1  UNL     1     -25.755  38.523   3.398  0.00  0.00    +0.000 A 
ATOM      8  C2  UNL     1     -25.549  37.703   2.286  0.00  0.00    +0.000 A 
ATOM      9  C3  UNL     1     -24.273  37.593   1.717  0.00  0.00    +0.000 A 
ATOM     10  C4  UNL     1     -23.201  38.304   2.270  0.00  0.00    +0.000 A 
ATOM     11  C5  UNL     1     -23.408  39.127   3.387  0.00  0.00    +0.000 A 
ATOM     12  C6  UNL     1     -24.689  39.255   3.951  0.00  0.00    +0.000 A 
BRANCH  10  13
ATOM     13  O6  UNL     1     -21.931  38.186   1.707  0.00  0.00    +0.000 OA
ATOM     14  H15 UNL     1     -21.174  38.806   1.971  0.00  0.00    +0.000 HD
ENDBRANCH  10  13
BRANCH   9  15
ATOM     15  O7  UNL     1     -24.064  36.778   0.607  0.00  0.00    +0.000 OA
ATOM     16  H16 UNL     1     -24.212  35.776   0.649  0.00  0.00    +0.000 HD
ENDBRANCH   9  15
ENDBRANCH   1  12
BRANCH   4  17
ATOM     17  O3  UNL     1     -26.542  42.090   8.404  0.00  0.00    +0.000 OA
ATOM     18  H12 UNL     1     -26.351  43.063   8.352  0.00  0.00    +0.000 HD
ENDBRANCH   4  17
BRANCH   3  19
ATOM     19  O4  UNL     1     -25.538  39.496   8.813  0.00  0.00    +0.000 OA
ATOM     20  H13 UNL     1     -25.493  40.305   9.385  0.00  0.00    +0.000 HD
ENDBRANCH   3  19
BRANCH   2  21
ATOM     21  O5  UNL     1     -23.770  38.869   6.935  0.00  0.00    +0.000 OA
ATOM     22  H14 UNL     1     -23.164  39.641   6.795  0.00  0.00    +0.000 HD
ENDBRANCH   2  21
BRANCH   5  23
ATOM     23  C12 UNL     1     -27.524  42.570   5.911  0.00  0.00    +0.000 C 
BRANCH  23  24
ATOM     24  O2  UNL     1     -27.516  43.657   5.028  0.00  0.00    +0.000 OA
ATOM     25  H11 UNL     1     -26.981  43.370   4.242  0.00  0.00    +0.000 HD
ENDBRANCH  23  24
ENDBRANCH   5  23
TORSDOF 8
ENDMDL
MODEL 5
REMARK VINA RESULT:      -4.2      2.463      3.751
REMARK  Name = .\Catechins.pdb
REMARK  8 active torsions:
REMARK  status: ('A' for Active; 'I' for Inactive)
REMARK    1  A    between atoms: C3_3  and  O7_19
REMARK    2  A    between atoms: C4_4  and  O6_18
REMARK    3  A    between atoms: C6_6  and  C7_7
REMARK    4  A    between atoms: C8_8  and  O5_17
REMARK    5  A    between atoms: C9_9  and  O4_16
REMARK    6  A    between atoms: C10_10  and  O3_15
REMARK    7  A    between atoms: C11_11  and  C12_13
REMARK    8  A    between atoms: C12_13  and  O2_14
REMARK                            x       y       z     vdW  Elec       q    Type
REMARK                         _______ _______ _______ _____ _____    ______ ____
ROOT
ATOM      1  C7  UNL     1     -24.090  38.433   4.633  0.00  0.00    +0.000 C 
ATOM      2  C8  UNL     1     -23.737  39.143   3.300  0.00  0.00    +0.000 C 
ATOM      3  C9  UNL     1     -24.263  38.340   2.078  0.00  0.00    +0.000 C 
ATOM      4  C10 UNL     1     -24.295  36.835   2.397  0.00  0.00    +0.000 C 
ATOM      5  C11 UNL     1     -25.152  36.569   3.684  0.00  0.00    +0.000 C 
ATOM      6  O1  UNL     1     -25.311  37.730   4.494  0.00  0.00    +0.000 OA
ENDROOT
BRANCH   1  12
ATOM      7  C1  UNL     1     -25.329  40.287   5.841  0.00  0.00    +0.000 A 
ATOM      8  C2  UNL     1     -25.418  41.242   6.858  0.00  0.00    +0.000 A 
ATOM      9  C3  UNL     1     -24.383  41.373   7.794  0.00  0.00    +0.000 A 
ATOM     10  C4  UNL     1     -23.255  40.548   7.705  0.00  0.00    +0.000 A 
ATOM     11  C5  UNL     1     -23.167  39.590   6.684  0.00  0.00    +0.000 A 
ATOM     12  C6  UNL     1     -24.209  39.442   5.753  0.00  0.00    +0.000 A 
BRANCH  10  13
ATOM     13  O6  UNL     1     -22.225  40.687   8.633  0.00  0.00    +0.000 OA
ATOM     14  H15 UNL     1     -21.925  41.599   8.960  0.00  0.00    +0.000 HD
ENDBRANCH  10  13
BRANCH   9  15
ATOM     15  O7  UNL     1     -24.469  42.322   8.810  0.00  0.00    +0.000 OA
ATOM     16  H16 UNL     1     -25.003  43.176   8.695  0.00  0.00    +0.000 HD
ENDBRANCH   9  15
ENDBRANCH   1  12
BRANCH   4  17
ATOM     17  O3  UNL     1     -24.783  36.114   1.292  0.00  0.00    +0.000 OA
ATOM     18  H12 UNL     1     -24.017  35.960   0.681  0.00  0.00    +0.000 HD
ENDBRANCH   4  17
BRANCH   3  19
ATOM     19  O4  UNL     1     -23.469  38.576   0.944  0.00  0.00    +0.000 OA
ATOM     20  H13 UNL     1     -22.616  38.089   1.088  0.00  0.00    +0.000 HD
ENDBRANCH   3  19
BRANCH   2  21
ATOM     21  O5  UNL     1     -22.349  39.368   3.217  0.00  0.00    +0.000 OA
ATOM     22  H14 UNL     1     -21.896  38.490   3.297  0.00  0.00    +0.000 HD
ENDBRANCH   2  21
BRANCH   5  23
ATOM     23  C12 UNL     1     -26.553  36.031   3.358  0.00  0.00    +0.000 C 
BRANCH  23  24
ATOM     24  O2  UNL     1     -27.303  37.022   2.711  0.00  0.00    +0.000 OA
ATOM     25  H11 UNL     1     -27.896  36.547   2.073  0.00  0.00    +0.000 HD
ENDBRANCH  23  24
ENDBRANCH   5  23
TORSDOF 8
ENDMDL
MODEL 6
REMARK VINA RESULT:      -4.2      1.397      2.471
REMARK  Name = .\Catechins.pdb
REMARK  8 active torsions:
REMARK  status: ('A' for Active; 'I' for Inactive)
REMARK    1  A    between atoms: C3_3  and  O7_19
REMARK    2  A    between atoms: C4_4  and  O6_18
REMARK    3  A    between atoms: C6_6  and  C7_7
REMARK    4  A    between atoms: C8_8  and  O5_17
REMARK    5  A    between atoms: C9_9  and  O4_16
REMARK    6  A    between atoms: C10_10  and  O3_15
REMARK    7  A    between atoms: C11_11  and  C12_13
REMARK    8  A    between atoms: C12_13  and  O2_14
REMARK                            x       y       z     vdW  Elec       q    Type
REMARK                         _______ _______ _______ _____ _____    ______ ____
ROOT
ATOM      1  C7  UNL     1     -23.831  39.371   5.744  0.00  0.00    +0.000 C 
ATOM      2  C8  UNL     1     -23.542  38.729   4.362  0.00  0.00    +0.000 C 
ATOM      3  C9  UNL     1     -23.053  37.262   4.515  0.00  0.00    +0.000 C 
ATOM      4  C10 UNL     1     -22.301  37.082   5.844  0.00  0.00    +0.000 C 
ATOM      5  C11 UNL     1     -23.207  37.523   7.047  0.00  0.00    +0.000 C 
ATOM      6  O1  UNL     1     -24.275  38.379   6.652  0.00  0.00    +0.000 OA
ENDROOT
BRANCH   1  12
ATOM      7  C1  UNL     1     -25.080  41.119   4.394  0.00  0.00    +0.000 A 
ATOM      8  C2  UNL     1     -26.031  42.138   4.290  0.00  0.00    +0.000 A 
ATOM      9  C3  UNL     1     -26.791  42.511   5.407  0.00  0.00    +0.000 A 
ATOM     10  C4  UNL     1     -26.591  41.863   6.633  0.00  0.00    +0.000 A 
ATOM     11  C5  UNL     1     -25.637  40.840   6.736  0.00  0.00    +0.000 A 
ATOM     12  C6  UNL     1     -24.885  40.450   5.615  0.00  0.00    +0.000 A 
BRANCH  10  13
ATOM     13  O6  UNL     1     -27.342  42.242   7.744  0.00  0.00    +0.000 OA
ATOM     14  H15 UNL     1     -28.323  42.000   7.828  0.00  0.00    +0.000 HD
ENDBRANCH  10  13
BRANCH   9  15
ATOM     15  O7  UNL     1     -27.740  43.525   5.307  0.00  0.00    +0.000 OA
ATOM     16  H16 UNL     1     -27.548  44.383   4.803  0.00  0.00    +0.000 HD
ENDBRANCH   9  15
ENDBRANCH   1  12
BRANCH   4  17
ATOM     17  O3  UNL     1     -21.871  35.749   5.983  0.00  0.00    +0.000 OA
ATOM     18  H12 UNL     1     -21.079  35.758   6.581  0.00  0.00    +0.000 HD
ENDBRANCH   4  17
BRANCH   3  19
ATOM     19  O4  UNL     1     -22.227  36.896   3.440  0.00  0.00    +0.000 OA
ATOM     20  H13 UNL     1     -22.820  36.505   2.747  0.00  0.00    +0.000 HD
ENDBRANCH   3  19
BRANCH   2  21
ATOM     21  O5  UNL     1     -22.622  39.513   3.640  0.00  0.00    +0.000 OA
ATOM     22  H14 UNL     1     -22.859  40.465   3.785  0.00  0.00    +0.000 HD
ENDBRANCH   2  21
BRANCH   5  23
ATOM     23  C12 UNL     1     -23.818  36.329   7.794  0.00  0.00    +0.000 C 
BRANCH  23  24
ATOM     24  O2  UNL     1     -24.759  35.689   6.977  0.00  0.00    +0.000 OA
ATOM     25  H11 UNL     1     -24.944  34.812   7.404  0.00  0.00    +0.000 HD
ENDBRANCH  23  24
ENDBRANCH   5  23
TORSDOF 8
ENDMDL
MODEL 7
REMARK VINA RESULT:      -4.2      2.317      3.884
REMARK  Name = .\Catechins.pdb
REMARK  8 active torsions:
REMARK  status: ('A' for Active; 'I' for Inactive)
REMARK    1  A    between atoms: C3_3  and  O7_19
REMARK    2  A    between atoms: C4_4  and  O6_18
REMARK    3  A    between atoms: C6_6  and  C7_7
REMARK    4  A    between atoms: C8_8  and  O5_17
REMARK    5  A    between atoms: C9_9  and  O4_16
REMARK    6  A    between atoms: C10_10  and  O3_15
REMARK    7  A    between atoms: C11_11  and  C12_13
REMARK    8  A    between atoms: C12_13  and  O2_14
REMARK                            x       y       z     vdW  Elec       q    Type
REMARK                         _______ _______ _______ _____ _____    ______ ____
ROOT
ATOM      1  C7  UNL     1     -24.878  39.034   3.997  0.00  0.00    +0.000 C 
ATOM      2  C8  UNL     1     -25.293  37.597   4.412  0.00  0.00    +0.000 C 
ATOM      3  C9  UNL     1     -24.850  36.555   3.349  0.00  0.00    +0.000 C 
ATOM      4  C10 UNL     1     -24.827  37.191   1.948  0.00  0.00    +0.000 C 
ATOM      5  C11 UNL     1     -23.904  38.460   1.942  0.00  0.00    +0.000 C 
ATOM      6  O1  UNL     1     -23.679  38.989   3.245  0.00  0.00    +0.000 OA
ENDROOT
BRANCH   1  12
ATOM      7  C1  UNL     1     -23.435  39.941   5.875  0.00  0.00    +0.000 A 
ATOM      8  C2  UNL     1     -23.267  40.717   7.025  0.00  0.00    +0.000 A 
ATOM      9  C3  UNL     1     -24.341  41.452   7.544  0.00  0.00    +0.000 A 
ATOM     10  C4  UNL     1     -25.589  41.404   6.910  0.00  0.00    +0.000 A 
ATOM     11  C5  UNL     1     -25.757  40.626   5.755  0.00  0.00    +0.000 A 
ATOM     12  C6  UNL     1     -24.679  39.900   5.220  0.00  0.00    +0.000 A 
BRANCH  10  13
ATOM     13  O6  UNL     1     -26.657  42.130   7.434  0.00  0.00    +0.000 OA
ATOM     14  H15 UNL     1     -26.997  42.972   6.984  0.00  0.00    +0.000 HD
ENDBRANCH  10  13
BRANCH   9  15
ATOM     15  O7  UNL     1     -24.176  42.227   8.690  0.00  0.00    +0.000 OA
ATOM     16  H16 UNL     1     -24.728  42.065   9.524  0.00  0.00    +0.000 HD
ENDBRANCH   9  15
ENDBRANCH   1  12
BRANCH   4  17
ATOM     17  O3  UNL     1     -24.413  36.246   0.992  0.00  0.00    +0.000 OA
ATOM     18  H12 UNL     1     -23.549  36.563   0.621  0.00  0.00    +0.000 HD
ENDBRANCH   4  17
BRANCH   3  19
ATOM     19  O4  UNL     1     -25.702  35.438   3.357  0.00  0.00    +0.000 OA
ATOM     20  H13 UNL     1     -26.266  35.506   2.544  0.00  0.00    +0.000 HD
ENDBRANCH   3  19
BRANCH   2  21
ATOM     21  O5  UNL     1     -26.679  37.538   4.654  0.00  0.00    +0.000 OA
ATOM     22  H14 UNL     1     -26.879  36.647   5.041  0.00  0.00    +0.000 HD
ENDBRANCH   2  21
BRANCH   5  23
ATOM     23  C12 UNL     1     -22.533  38.188   1.305  0.00  0.00    +0.000 C 
BRANCH  23  24
ATOM     24  O2  UNL     1     -22.293  39.114   0.281  0.00  0.00    +0.000 OA
ATOM     25  H11 UNL     1     -23.176  39.308  -0.127  0.00  0.00    +0.000 HD
ENDBRANCH  23  24
ENDBRANCH   5  23
TORSDOF 8
ENDMDL
MODEL 8
REMARK VINA RESULT:      -4.0      2.513      6.048
REMARK  Name = .\Catechins.pdb
REMARK  8 active torsions:
REMARK  status: ('A' for Active; 'I' for Inactive)
REMARK    1  A    between atoms: C3_3  and  O7_19
REMARK    2  A    between atoms: C4_4  and  O6_18
REMARK    3  A    between atoms: C6_6  and  C7_7
REMARK    4  A    between atoms: C8_8  and  O5_17
REMARK    5  A    between atoms: C9_9  and  O4_16
REMARK    6  A    between atoms: C10_10  and  O3_15
REMARK    7  A    between atoms: C11_11  and  C12_13
REMARK    8  A    between atoms: C12_13  and  O2_14
REMARK                            x       y       z     vdW  Elec       q    Type
REMARK                         _______ _______ _______ _____ _____    ______ ____
ROOT
ATOM      1  C7  UNL     1     -25.226  39.196   4.819  0.00  0.00    +0.000 C 
ATOM      2  C8  UNL     1     -24.206  40.324   5.129  0.00  0.00    +0.000 C 
ATOM      3  C9  UNL     1     -24.169  40.646   6.649  0.00  0.00    +0.000 C 
ATOM      4  C10 UNL     1     -25.540  40.376   7.290  0.00  0.00    +0.000 C 
ATOM      5  C11 UNL     1     -25.987  38.897   7.018  0.00  0.00    +0.000 C 
ATOM      6  O1  UNL     1     -25.304  38.305   5.917  0.00  0.00    +0.000 OA
ENDROOT
BRANCH   1  12
ATOM      7  C1  UNL     1     -25.675  37.491   2.996  0.00  0.00    +0.000 A 
ATOM      8  C2  UNL     1     -25.275  36.769   1.868  0.00  0.00    +0.000 A 
ATOM      9  C3  UNL     1     -24.004  36.974   1.313  0.00  0.00    +0.000 A 
ATOM     10  C4  UNL     1     -23.132  37.903   1.895  0.00  0.00    +0.000 A 
ATOM     11  C5  UNL     1     -23.534  38.628   3.026  0.00  0.00    +0.000 A 
ATOM     12  C6  UNL     1     -24.813  38.438   3.577  0.00  0.00    +0.000 A 
BRANCH  10  13
ATOM     13  O6  UNL     1     -21.866  38.098   1.345  0.00  0.00    +0.000 OA
ATOM     14  H15 UNL     1     -21.068  37.552   1.645  0.00  0.00    +0.000 HD
ENDBRANCH  10  13
BRANCH   9  15
ATOM     15  O7  UNL     1     -23.602  36.257   0.189  0.00  0.00    +0.000 OA
ATOM     16  H16 UNL     1     -23.303  36.724  -0.660  0.00  0.00    +0.000 HD
ENDBRANCH   9  15
ENDBRANCH   1  12
BRANCH   4  17
ATOM     17  O3  UNL     1     -25.497  40.657   8.668  0.00  0.00    +0.000 OA
ATOM     18  H12 UNL     1     -25.123  39.856   9.119  0.00  0.00    +0.000 HD
ENDBRANCH   4  17
BRANCH   3  19
ATOM     19  O4  UNL     1     -23.788  41.979   6.868  0.00  0.00    +0.000 OA
ATOM     20  H13 UNL     1     -22.806  42.021   6.729  0.00  0.00    +0.000 HD
ENDBRANCH   3  19
BRANCH   2  21
ATOM     21  O5  UNL     1     -24.493  41.468   4.360  0.00  0.00    +0.000 OA
ATOM     22  H14 UNL     1     -25.392  41.792   4.625  0.00  0.00    +0.000 HD
ENDBRANCH   2  21
BRANCH   5  23
ATOM     23  C12 UNL     1     -25.784  37.985   8.237  0.00  0.00    +0.000 C 
BRANCH  23  24
ATOM     24  O2  UNL     1     -24.426  37.951   8.583  0.00  0.00    +0.000 OA
ATOM     25  H11 UNL     1     -24.050  37.145   8.141  0.00  0.00    +0.000 HD
ENDBRANCH  23  24
ENDBRANCH   5  23
TORSDOF 8
ENDMDL
MODEL 9
REMARK VINA RESULT:      -3.9      1.381      2.659
REMARK  Name = .\Catechins.pdb
REMARK  8 active torsions:
REMARK  status: ('A' for Active; 'I' for Inactive)
REMARK    1  A    between atoms: C3_3  and  O7_19
REMARK    2  A    between atoms: C4_4  and  O6_18
REMARK    3  A    between atoms: C6_6  and  C7_7
REMARK    4  A    between atoms: C8_8  and  O5_17
REMARK    5  A    between atoms: C9_9  and  O4_16
REMARK    6  A    between atoms: C10_10  and  O3_15
REMARK    7  A    between atoms: C11_11  and  C12_13
REMARK    8  A    between atoms: C12_13  and  O2_14
REMARK                            x       y       z     vdW  Elec       q    Type
REMARK                         _______ _______ _______ _____ _____    ______ ____
ROOT
ATOM      1  C7  UNL     1     -25.134  39.248   5.796  0.00  0.00    +0.000 C 
ATOM      2  C8  UNL     1     -23.866  39.051   6.668  0.00  0.00    +0.000 C 
ATOM      3  C9  UNL     1     -22.718  38.397   5.851  0.00  0.00    +0.000 C 
ATOM      4  C10 UNL     1     -23.291  37.486   4.752  0.00  0.00    +0.000 C 
ATOM      5  C11 UNL     1     -24.274  38.292   3.834  0.00  0.00    +0.000 C 
ATOM      6  O1  UNL     1     -24.759  39.481   4.450  0.00  0.00    +0.000 OA
ENDROOT
BRANCH   1  12
ATOM      7  C1  UNL     1     -26.385  40.457   7.642  0.00  0.00    +0.000 A 
ATOM      8  C2  UNL     1     -27.167  41.521   8.099  0.00  0.00    +0.000 A 
ATOM      9  C3  UNL     1     -27.533  42.553   7.225  0.00  0.00    +0.000 A 
ATOM     10  C4  UNL     1     -27.119  42.513   5.888  0.00  0.00    +0.000 A 
ATOM     11  C5  UNL     1     -26.334  41.445   5.430  0.00  0.00    +0.000 A 
ATOM     12  C6  UNL     1     -25.949  40.416   6.306  0.00  0.00    +0.000 A 
BRANCH  10  13
ATOM     13  O6  UNL     1     -27.492  43.538   5.020  0.00  0.00    +0.000 OA
ATOM     14  H15 UNL     1     -27.781  44.446   5.364  0.00  0.00    +0.000 HD
ENDBRANCH  10  13
BRANCH   9  15
ATOM     15  O7  UNL     1     -28.312  43.616   7.677  0.00  0.00    +0.000 OA
ATOM     16  H16 UNL     1     -29.301  43.678   7.465  0.00  0.00    +0.000 HD
ENDBRANCH   9  15
ENDBRANCH   1  12
BRANCH   4  17
ATOM     17  O3  UNL     1     -22.247  36.906   4.008  0.00  0.00    +0.000 OA
ATOM     18  H12 UNL     1     -22.649  36.197   3.442  0.00  0.00    +0.000 HD
ENDBRANCH   4  17
BRANCH   3  19
ATOM     19  O4  UNL     1     -21.862  37.663   6.689  0.00  0.00    +0.000 OA
ATOM     20  H13 UNL     1     -21.204  38.308   7.057  0.00  0.00    +0.000 HD
ENDBRANCH   3  19
BRANCH   2  21
ATOM     21  O5  UNL     1     -24.176  38.304   7.821  0.00  0.00    +0.000 OA
ATOM     22  H14 UNL     1     -23.555  38.588   8.540  0.00  0.00    +0.000 HD
ENDBRANCH   2  21
BRANCH   5  23
ATOM     23  C12 UNL     1     -23.639  38.687   2.493  0.00  0.00    +0.000 C 
BRANCH  23  24
ATOM     24  O2  UNL     1     -22.566  39.560   2.715  0.00  0.00    +0.000 OA
ATOM     25  H11 UNL     1     -21.773  39.135   2.296  0.00  0.00    +0.000 HD
ENDBRANCH  23  24
ENDBRANCH   5  23
TORSDOF 8
ENDMDL
