MODEL 1
REMARK VINA RESULT:      -5.5      0.000      0.000
REMARK  Name = .\Catechins.pdb
REMARK  8 active torsions:
REMARK  status: ('A' for Active; 'I' for Inactive)
REMARK    1  A    between atoms: C3_3  and  O7_19
REMARK    2  A    between atoms: C4_4  and  O6_18
REMARK    3  A    between atoms: C6_6  and  C7_7
REMARK    4  A    between atoms: C8_8  and  O5_17
REMARK    5  A    between atoms: C9_9  and  O4_16
REMARK    6  A    between atoms: C10_10  and  O3_15
REMARK    7  A    between atoms: C11_11  and  C12_13
REMARK    8  A    between atoms: C12_13  and  O2_14
REMARK                            x       y       z     vdW  Elec       q    Type
REMARK                         _______ _______ _______ _____ _____    ______ ____
ROOT
ATOM      1  C7  UNL     1     -13.573  69.378 -13.802  0.00  0.00    +0.000 C 
ATOM      2  C8  UNL     1     -14.110  68.289 -14.768  0.00  0.00    +0.000 C 
ATOM      3  C9  UNL     1     -15.176  67.398 -14.074  0.00  0.00    +0.000 C 
ATOM      4  C10 UNL     1     -14.897  67.302 -12.564  0.00  0.00    +0.000 C 
ATOM      5  C11 UNL     1     -14.833  68.736 -11.930  0.00  0.00    +0.000 C 
ATOM      6  O1  UNL     1     -14.591  69.757 -12.893  0.00  0.00    +0.000 OA
ENDROOT
BRANCH   1  12
ATOM      7  C1  UNL     1     -13.735  71.836 -14.408  0.00  0.00    +0.000 A 
ATOM      8  C2  UNL     1     -13.323  72.944 -15.153  0.00  0.00    +0.000 A 
ATOM      9  C3  UNL     1     -12.286  72.819 -16.088  0.00  0.00    +0.000 A 
ATOM     10  C4  UNL     1     -11.666  71.578 -16.278  0.00  0.00    +0.000 A 
ATOM     11  C5  UNL     1     -12.079  70.467 -15.529  0.00  0.00    +0.000 A 
ATOM     12  C6  UNL     1     -13.107  70.590 -14.578  0.00  0.00    +0.000 A 
BRANCH  10  13
ATOM     13  O6  UNL     1     -10.640  71.457 -17.214  0.00  0.00    +0.000 OA
ATOM     14  H15 UNL     1     -10.160  72.269 -17.583  0.00  0.00    +0.000 HD
ENDBRANCH  10  13
BRANCH   9  15
ATOM     15  O7  UNL     1     -11.872  73.922 -16.832  0.00  0.00    +0.000 OA
ATOM     16  H16 UNL     1     -10.894  74.082 -17.043  0.00  0.00    +0.000 HD
ENDBRANCH   9  15
ENDBRANCH   1  12
BRANCH   4  17
ATOM     17  O3  UNL     1     -15.873  66.504 -11.939  0.00  0.00    +0.000 OA
ATOM     18  H12 UNL     1     -16.744  66.721 -12.362  0.00  0.00    +0.000 HD
ENDBRANCH   4  17
BRANCH   3  19
ATOM     19  O4  UNL     1     -15.201  66.114 -14.641  0.00  0.00    +0.000 OA
ATOM     20  H13 UNL     1     -14.975  66.223 -15.601  0.00  0.00    +0.000 HD
ENDBRANCH   3  19
BRANCH   2  21
ATOM     21  O5  UNL     1     -13.046  67.524 -15.284  0.00  0.00    +0.000 OA
ATOM     22  H14 UNL     1     -13.258  66.568 -15.125  0.00  0.00    +0.000 HD
ENDBRANCH   2  21
BRANCH   5  23
ATOM     23  C12 UNL     1     -16.118  69.104 -11.173  0.00  0.00    +0.000 C 
BRANCH  23  24
ATOM     24  O2  UNL     1     -17.173  69.266 -12.081  0.00  0.00    +0.000 OA
ATOM     25  H11 UNL     1     -16.802  69.057 -12.977  0.00  0.00    +0.000 HD
ENDBRANCH  23  24
ENDBRANCH   5  23
TORSDOF 8
ENDMDL
MODEL 2
REMARK VINA RESULT:      -5.5      1.438      2.409
REMARK  Name = .\Catechins.pdb
REMARK  8 active torsions:
REMARK  status: ('A' for Active; 'I' for Inactive)
REMARK    1  A    between atoms: C3_3  and  O7_19
REMARK    2  A    between atoms: C4_4  and  O6_18
REMARK    3  A    between atoms: C6_6  and  C7_7
REMARK    4  A    between atoms: C8_8  and  O5_17
REMARK    5  A    between atoms: C9_9  and  O4_16
REMARK    6  A    between atoms: C10_10  and  O3_15
REMARK    7  A    between atoms: C11_11  and  C12_13
REMARK    8  A    between atoms: C12_13  and  O2_14
REMARK                            x       y       z     vdW  Elec       q    Type
REMARK                         _______ _______ _______ _____ _____    ______ ____
ROOT
ATOM      1  C7  UNL     1     -14.795  69.681 -13.852  0.00  0.00    +0.000 C 
ATOM      2  C8  UNL     1     -14.117  68.873 -12.713  0.00  0.00    +0.000 C 
ATOM      3  C9  UNL     1     -14.819  67.504 -12.501  0.00  0.00    +0.000 C 
ATOM      4  C10 UNL     1     -16.310  67.601 -12.866  0.00  0.00    +0.000 C 
ATOM      5  C11 UNL     1     -16.478  68.121 -14.337  0.00  0.00    +0.000 C 
ATOM      6  O1  UNL     1     -15.320  68.794 -14.822  0.00  0.00    +0.000 OA
ENDROOT
BRANCH   1  12
ATOM      7  C1  UNL     1     -14.026  72.001 -14.531  0.00  0.00    +0.000 A 
ATOM      8  C2  UNL     1     -13.118  72.855 -15.164  0.00  0.00    +0.000 A 
ATOM      9  C3  UNL     1     -11.977  72.333 -15.788  0.00  0.00    +0.000 A 
ATOM     10  C4  UNL     1     -11.750  70.951 -15.781  0.00  0.00    +0.000 A 
ATOM     11  C5  UNL     1     -12.660  70.095 -15.145  0.00  0.00    +0.000 A 
ATOM     12  C6  UNL     1     -13.798  70.614 -14.503  0.00  0.00    +0.000 A 
BRANCH  10  13
ATOM     13  O6  UNL     1     -10.617  70.436 -16.410  0.00  0.00    +0.000 OA
ATOM     14  H15 UNL     1      -9.828  70.088 -15.879  0.00  0.00    +0.000 HD
ENDBRANCH  10  13
BRANCH   9  15
ATOM     15  O7  UNL     1     -11.069  73.181 -16.419  0.00  0.00    +0.000 OA
ATOM     16  H16 UNL     1     -11.377  73.921 -17.039  0.00  0.00    +0.000 HD
ENDBRANCH   9  15
ENDBRANCH   1  12
BRANCH   4  17
ATOM     17  O3  UNL     1     -16.938  66.356 -12.683  0.00  0.00    +0.000 OA
ATOM     18  H12 UNL     1     -17.236  66.314 -11.737  0.00  0.00    +0.000 HD
ENDBRANCH   4  17
BRANCH   3  19
ATOM     19  O4  UNL     1     -14.676  67.069 -11.173  0.00  0.00    +0.000 OA
ATOM     20  H13 UNL     1     -15.164  66.208 -11.102  0.00  0.00    +0.000 HD
ENDBRANCH   3  19
BRANCH   2  21
ATOM     21  O5  UNL     1     -14.084  69.632 -11.528  0.00  0.00    +0.000 OA
ATOM     22  H14 UNL     1     -14.720  70.385 -11.634  0.00  0.00    +0.000 HD
ENDBRANCH   2  21
BRANCH   5  23
ATOM     23  C12 UNL     1     -16.812  66.994 -15.326  0.00  0.00    +0.000 C 
BRANCH  23  24
ATOM     24  O2  UNL     1     -15.737  66.099 -15.406  0.00  0.00    +0.000 OA
ATOM     25  H11 UNL     1     -16.015  65.390 -16.043  0.00  0.00    +0.000 HD
ENDBRANCH  23  24
ENDBRANCH   5  23
TORSDOF 8
ENDMDL
MODEL 3
REMARK VINA RESULT:      -5.1      1.251      2.665
REMARK  Name = .\Catechins.pdb
REMARK  8 active torsions:
REMARK  status: ('A' for Active; 'I' for Inactive)
REMARK    1  A    between atoms: C3_3  and  O7_19
REMARK    2  A    between atoms: C4_4  and  O6_18
REMARK    3  A    between atoms: C6_6  and  C7_7
REMARK    4  A    between atoms: C8_8  and  O5_17
REMARK    5  A    between atoms: C9_9  and  O4_16
REMARK    6  A    between atoms: C10_10  and  O3_15
REMARK    7  A    between atoms: C11_11  and  C12_13
REMARK    8  A    between atoms: C12_13  and  O2_14
REMARK                            x       y       z     vdW  Elec       q    Type
REMARK                         _______ _______ _______ _____ _____    ______ ____
ROOT
ATOM      1  C7  UNL     1     -14.334  68.997 -14.369  0.00  0.00    +0.000 C 
ATOM      2  C8  UNL     1     -14.811  69.220 -12.910  0.00  0.00    +0.000 C 
ATOM      3  C9  UNL     1     -15.036  67.868 -12.179  0.00  0.00    +0.000 C 
ATOM      4  C10 UNL     1     -15.456  66.778 -13.180  0.00  0.00    +0.000 C 
ATOM      5  C11 UNL     1     -14.392  66.652 -14.326  0.00  0.00    +0.000 C 
ATOM      6  O1  UNL     1     -13.568  67.808 -14.447  0.00  0.00    +0.000 OA
ENDROOT
BRANCH   1  12
ATOM      7  C1  UNL     1     -13.917  71.489 -14.588  0.00  0.00    +0.000 A 
ATOM      8  C2  UNL     1     -13.162  72.569 -15.053  0.00  0.00    +0.000 A 
ATOM      9  C3  UNL     1     -11.987  72.345 -15.784  0.00  0.00    +0.000 A 
ATOM     10  C4  UNL     1     -11.574  71.035 -16.054  0.00  0.00    +0.000 A 
ATOM     11  C5  UNL     1     -12.332  69.951 -15.586  0.00  0.00    +0.000 A 
ATOM     12  C6  UNL     1     -13.501  70.169 -14.838  0.00  0.00    +0.000 A 
BRANCH  10  13
ATOM     13  O6  UNL     1     -10.410  70.817 -16.789  0.00  0.00    +0.000 OA
ATOM     14  H15 UNL     1     -10.373  70.988 -17.787  0.00  0.00    +0.000 HD
ENDBRANCH  10  13
BRANCH   9  15
ATOM     15  O7  UNL     1     -11.231  73.419 -16.249  0.00  0.00    +0.000 OA
ATOM     16  H16 UNL     1     -11.668  74.273 -16.577  0.00  0.00    +0.000 HD
ENDBRANCH   9  15
ENDBRANCH   1  12
BRANCH   4  17
ATOM     17  O3  UNL     1     -15.647  65.553 -12.515  0.00  0.00    +0.000 OA
ATOM     18  H12 UNL     1     -16.520  65.608 -12.045  0.00  0.00    +0.000 HD
ENDBRANCH   4  17
BRANCH   3  19
ATOM     19  O4  UNL     1     -16.008  67.998 -11.173  0.00  0.00    +0.000 OA
ATOM     20  H13 UNL     1     -16.760  67.403 -11.427  0.00  0.00    +0.000 HD
ENDBRANCH   3  19
BRANCH   2  21
ATOM     21  O5  UNL     1     -15.968  70.023 -12.890  0.00  0.00    +0.000 OA
ATOM     22  H14 UNL     1     -16.103  70.333 -11.957  0.00  0.00    +0.000 HD
ENDBRANCH   2  21
BRANCH   5  23
ATOM     23  C12 UNL     1     -13.468  65.438 -14.141  0.00  0.00    +0.000 C 
BRANCH  23  24
ATOM     24  O2  UNL     1     -12.457  65.747 -13.221  0.00  0.00    +0.000 OA
ATOM     25  H11 UNL     1     -12.416  66.738 -13.178  0.00  0.00    +0.000 HD
ENDBRANCH  23  24
ENDBRANCH   5  23
TORSDOF 8
ENDMDL
MODEL 4
REMARK VINA RESULT:      -5.0      1.385      5.891
REMARK  Name = .\Catechins.pdb
REMARK  8 active torsions:
REMARK  status: ('A' for Active; 'I' for Inactive)
REMARK    1  A    between atoms: C3_3  and  O7_19
REMARK    2  A    between atoms: C4_4  and  O6_18
REMARK    3  A    between atoms: C6_6  and  C7_7
REMARK    4  A    between atoms: C8_8  and  O5_17
REMARK    5  A    between atoms: C9_9  and  O4_16
REMARK    6  A    between atoms: C10_10  and  O3_15
REMARK    7  A    between atoms: C11_11  and  C12_13
REMARK    8  A    between atoms: C12_13  and  O2_14
REMARK                            x       y       z     vdW  Elec       q    Type
REMARK                         _______ _______ _______ _____ _____    ______ ____
ROOT
ATOM      1  C7  UNL     1     -13.479  69.941 -14.928  0.00  0.00    +0.000 C 
ATOM      2  C8  UNL     1     -12.006  69.528 -15.188  0.00  0.00    +0.000 C 
ATOM      3  C9  UNL     1     -11.141  70.755 -15.588  0.00  0.00    +0.000 C 
ATOM      4  C10 UNL     1     -11.997  71.802 -16.319  0.00  0.00    +0.000 C 
ATOM      5  C11 UNL     1     -13.223  72.218 -15.433  0.00  0.00    +0.000 C 
ATOM      6  O1  UNL     1     -13.525  71.262 -14.420  0.00  0.00    +0.000 OA
ENDROOT
BRANCH   1  12
ATOM      7  C1  UNL     1     -14.482  69.434 -12.654  0.00  0.00    +0.000 A 
ATOM      8  C2  UNL     1     -15.048  68.546 -11.735  0.00  0.00    +0.000 A 
ATOM      9  C3  UNL     1     -15.257  67.205 -12.086  0.00  0.00    +0.000 A 
ATOM     10  C4  UNL     1     -14.890  66.754 -13.360  0.00  0.00    +0.000 A 
ATOM     11  C5  UNL     1     -14.322  67.645 -14.282  0.00  0.00    +0.000 A 
ATOM     12  C6  UNL     1     -14.127  68.995 -13.942  0.00  0.00    +0.000 A 
BRANCH  10  13
ATOM     13  O6  UNL     1     -15.091  65.418 -13.702  0.00  0.00    +0.000 OA
ATOM     14  H15 UNL     1     -15.274  64.712 -12.998  0.00  0.00    +0.000 HD
ENDBRANCH  10  13
BRANCH   9  15
ATOM     15  O7  UNL     1     -15.822  66.318 -11.173  0.00  0.00    +0.000 OA
ATOM     16  H16 UNL     1     -15.403  66.152 -10.265  0.00  0.00    +0.000 HD
ENDBRANCH   9  15
ENDBRANCH   1  12
BRANCH   4  17
ATOM     17  O3  UNL     1     -11.211  72.916 -16.668  0.00  0.00    +0.000 OA
ATOM     18  H12 UNL     1     -10.975  72.819 -17.628  0.00  0.00    +0.000 HD
ENDBRANCH   4  17
BRANCH   3  19
ATOM     19  O4  UNL     1     -10.062  70.363 -16.398  0.00  0.00    +0.000 OA
ATOM     20  H13 UNL     1      -9.415  69.901 -15.805  0.00  0.00    +0.000 HD
ENDBRANCH   3  19
BRANCH   2  21
ATOM     21  O5  UNL     1     -11.947  68.509 -16.158  0.00  0.00    +0.000 OA
ATOM     22  H14 UNL     1     -11.466  68.871 -16.946  0.00  0.00    +0.000 HD
ENDBRANCH   2  21
BRANCH   5  23
ATOM     23  C12 UNL     1     -13.021  73.577 -14.747  0.00  0.00    +0.000 C 
BRANCH  23  24
ATOM     24  O2  UNL     1     -13.410  73.493 -13.403  0.00  0.00    +0.000 OA
ATOM     25  H11 UNL     1     -12.691  73.933 -12.880  0.00  0.00    +0.000 HD
ENDBRANCH  23  24
ENDBRANCH   5  23
TORSDOF 8
ENDMDL
MODEL 5
REMARK VINA RESULT:      -4.6      1.658      5.908
REMARK  Name = .\Catechins.pdb
REMARK  8 active torsions:
REMARK  status: ('A' for Active; 'I' for Inactive)
REMARK    1  A    between atoms: C3_3  and  O7_19
REMARK    2  A    between atoms: C4_4  and  O6_18
REMARK    3  A    between atoms: C6_6  and  C7_7
REMARK    4  A    between atoms: C8_8  and  O5_17
REMARK    5  A    between atoms: C9_9  and  O4_16
REMARK    6  A    between atoms: C10_10  and  O3_15
REMARK    7  A    between atoms: C11_11  and  C12_13
REMARK    8  A    between atoms: C12_13  and  O2_14
REMARK                            x       y       z     vdW  Elec       q    Type
REMARK                         _______ _______ _______ _____ _____    ______ ____
ROOT
ATOM      1  C7  UNL     1     -13.848  69.646 -15.218  0.00  0.00    +0.000 C 
ATOM      2  C8  UNL     1     -12.364  69.201 -15.148  0.00  0.00    +0.000 C 
ATOM      3  C9  UNL     1     -11.406  70.418 -15.270  0.00  0.00    +0.000 C 
ATOM      4  C10 UNL     1     -12.047  71.524 -16.126  0.00  0.00    +0.000 C 
ATOM      5  C11 UNL     1     -13.439  71.934 -15.530  0.00  0.00    +0.000 C 
ATOM      6  O1  UNL     1     -13.988  70.943 -14.667  0.00  0.00    +0.000 OA
ENDROOT
BRANCH   1  12
ATOM      7  C1  UNL     1     -15.947  68.237 -15.005  0.00  0.00    +0.000 A 
ATOM      8  C2  UNL     1     -16.771  67.367 -14.286  0.00  0.00    +0.000 A 
ATOM      9  C3  UNL     1     -16.393  66.932 -13.008  0.00  0.00    +0.000 A 
ATOM     10  C4  UNL     1     -15.188  67.376 -12.450  0.00  0.00    +0.000 A 
ATOM     11  C5  UNL     1     -14.362  68.249 -13.172  0.00  0.00    +0.000 A 
ATOM     12  C6  UNL     1     -14.727  68.675 -14.460  0.00  0.00    +0.000 A 
BRANCH  10  13
ATOM     13  O6  UNL     1     -14.820  66.948 -11.175  0.00  0.00    +0.000 OA
ATOM     14  H15 UNL     1     -15.511  66.651 -10.496  0.00  0.00    +0.000 HD
ENDBRANCH  10  13
BRANCH   9  15
ATOM     15  O7  UNL     1     -17.211  66.064 -12.289  0.00  0.00    +0.000 OA
ATOM     16  H16 UNL     1     -17.216  66.056 -11.276  0.00  0.00    +0.000 HD
ENDBRANCH   9  15
ENDBRANCH   1  12
BRANCH   4  17
ATOM     17  O3  UNL     1     -11.181  72.628 -16.223  0.00  0.00    +0.000 OA
ATOM     18  H12 UNL     1     -11.560  73.238 -16.908  0.00  0.00    +0.000 HD
ENDBRANCH   4  17
BRANCH   3  19
ATOM     19  O4  UNL     1     -10.175  70.032 -15.825  0.00  0.00    +0.000 OA
ATOM     20  H13 UNL     1     -10.195  69.043 -15.900  0.00  0.00    +0.000 HD
ENDBRANCH   3  19
BRANCH   2  21
ATOM     21  O5  UNL     1     -12.097  68.227 -16.128  0.00  0.00    +0.000 OA
ATOM     22  H14 UNL     1     -12.967  67.922 -16.494  0.00  0.00    +0.000 HD
ENDBRANCH   2  21
BRANCH   5  23
ATOM     23  C12 UNL     1     -13.379  73.254 -14.747  0.00  0.00    +0.000 C 
BRANCH  23  24
ATOM     24  O2  UNL     1     -13.487  72.996 -13.374  0.00  0.00    +0.000 OA
ATOM     25  H11 UNL     1     -14.274  73.511 -13.057  0.00  0.00    +0.000 HD
ENDBRANCH  23  24
ENDBRANCH   5  23
TORSDOF 8
ENDMDL
MODEL 6
REMARK VINA RESULT:      -4.2      2.466      6.060
REMARK  Name = .\Catechins.pdb
REMARK  8 active torsions:
REMARK  status: ('A' for Active; 'I' for Inactive)
REMARK    1  A    between atoms: C3_3  and  O7_19
REMARK    2  A    between atoms: C4_4  and  O6_18
REMARK    3  A    between atoms: C6_6  and  C7_7
REMARK    4  A    between atoms: C8_8  and  O5_17
REMARK    5  A    between atoms: C9_9  and  O4_16
REMARK    6  A    between atoms: C10_10  and  O3_15
REMARK    7  A    between atoms: C11_11  and  C12_13
REMARK    8  A    between atoms: C12_13  and  O2_14
REMARK                            x       y       z     vdW  Elec       q    Type
REMARK                         _______ _______ _______ _____ _____    ______ ____
ROOT
ATOM      1  C7  UNL     1     -13.737  72.782 -14.611  0.00  0.00    +0.000 C 
ATOM      2  C8  UNL     1     -12.540  73.401 -15.379  0.00  0.00    +0.000 C 
ATOM      3  C9  UNL     1     -12.205  74.822 -14.848  0.00  0.00    +0.000 C 
ATOM      4  C10 UNL     1     -13.473  75.509 -14.314  0.00  0.00    +0.000 C 
ATOM      5  C11 UNL     1     -14.151  74.619 -13.214  0.00  0.00    +0.000 C 
ATOM      6  O1  UNL     1     -13.748  73.255 -13.277  0.00  0.00    +0.000 OA
ENDROOT
BRANCH   1  12
ATOM      7  C1  UNL     1     -14.585  70.494 -13.919  0.00  0.00    +0.000 A 
ATOM      8  C2  UNL     1     -14.474  69.101 -13.897  0.00  0.00    +0.000 A 
ATOM      9  C3  UNL     1     -13.414  68.467 -14.560  0.00  0.00    +0.000 A 
ATOM     10  C4  UNL     1     -12.461  69.235 -15.241  0.00  0.00    +0.000 A 
ATOM     11  C5  UNL     1     -12.573  70.632 -15.263  0.00  0.00    +0.000 A 
ATOM     12  C6  UNL     1     -13.644  71.272 -14.615  0.00  0.00    +0.000 A 
BRANCH  10  13
ATOM     13  O6  UNL     1     -11.404  68.601 -15.892  0.00  0.00    +0.000 OA
ATOM     14  H15 UNL     1     -11.095  68.895 -16.812  0.00  0.00    +0.000 HD
ENDBRANCH  10  13
BRANCH   9  15
ATOM     15  O7  UNL     1     -13.300  67.079 -14.541  0.00  0.00    +0.000 OA
ATOM     16  H16 UNL     1     -14.071  66.487 -14.254  0.00  0.00    +0.000 HD
ENDBRANCH   9  15
ENDBRANCH   1  12
BRANCH   4  17
ATOM     17  O3  UNL     1     -13.162  76.790 -13.823  0.00  0.00    +0.000 OA
ATOM     18  H12 UNL     1     -14.017  77.285 -13.732  0.00  0.00    +0.000 HD
ENDBRANCH   4  17
BRANCH   3  19
ATOM     19  O4  UNL     1     -11.619  75.607 -15.855  0.00  0.00    +0.000 OA
ATOM     20  H13 UNL     1     -11.328  76.451 -15.422  0.00  0.00    +0.000 HD
ENDBRANCH   3  19
BRANCH   2  21
ATOM     21  O5  UNL     1     -12.797  73.408 -16.764  0.00  0.00    +0.000 OA
ATOM     22  H14 UNL     1     -11.923  73.452 -17.232  0.00  0.00    +0.000 HD
ENDBRANCH   2  21
BRANCH   5  23
ATOM     23  C12 UNL     1     -13.869  75.124 -11.791  0.00  0.00    +0.000 C 
BRANCH  23  24
ATOM     24  O2  UNL     1     -12.516  74.933 -11.479  0.00  0.00    +0.000 OA
ATOM     25  H11 UNL     1     -12.266  75.675 -10.869  0.00  0.00    +0.000 HD
ENDBRANCH  23  24
ENDBRANCH   5  23
TORSDOF 8
ENDMDL
MODEL 7
REMARK VINA RESULT:      -4.0      2.412      3.988
REMARK  Name = .\Catechins.pdb
REMARK  8 active torsions:
REMARK  status: ('A' for Active; 'I' for Inactive)
REMARK    1  A    between atoms: C3_3  and  O7_19
REMARK    2  A    between atoms: C4_4  and  O6_18
REMARK    3  A    between atoms: C6_6  and  C7_7
REMARK    4  A    between atoms: C8_8  and  O5_17
REMARK    5  A    between atoms: C9_9  and  O4_16
REMARK    6  A    between atoms: C10_10  and  O3_15
REMARK    7  A    between atoms: C11_11  and  C12_13
REMARK    8  A    between atoms: C12_13  and  O2_14
REMARK                            x       y       z     vdW  Elec       q    Type
REMARK                         _______ _______ _______ _____ _____    ______ ____
ROOT
ATOM      1  C7  UNL     1     -14.703  70.252 -13.405  0.00  0.00    +0.000 C 
ATOM      2  C8  UNL     1     -14.824  69.304 -12.183  0.00  0.00    +0.000 C 
ATOM      3  C9  UNL     1     -14.248  67.897 -12.503  0.00  0.00    +0.000 C 
ATOM      4  C10 UNL     1     -14.411  67.577 -13.999  0.00  0.00    +0.000 C 
ATOM      5  C11 UNL     1     -13.739  68.695 -14.871  0.00  0.00    +0.000 C 
ATOM      6  O1  UNL     1     -13.554  69.915 -14.161  0.00  0.00    +0.000 OA
ENDROOT
BRANCH   1  12
ATOM      7  C1  UNL     1     -15.148  72.089 -11.713  0.00  0.00    +0.000 A 
ATOM      8  C2  UNL     1     -15.088  73.426 -11.312  0.00  0.00    +0.000 A 
ATOM      9  C3  UNL     1     -14.498  74.387 -12.146  0.00  0.00    +0.000 A 
ATOM     10  C4  UNL     1     -13.973  74.004 -13.386  0.00  0.00    +0.000 A 
ATOM     11  C5  UNL     1     -14.033  72.661 -13.788  0.00  0.00    +0.000 A 
ATOM     12  C6  UNL     1     -14.608  71.691 -12.949  0.00  0.00    +0.000 A 
BRANCH  10  13
ATOM     13  O6  UNL     1     -13.395  74.963 -14.216  0.00  0.00    +0.000 OA
ATOM     14  H15 UNL     1     -12.710  74.712 -14.919  0.00  0.00    +0.000 HD
ENDBRANCH  10  13
BRANCH   9  15
ATOM     15  O7  UNL     1     -14.436  75.721 -11.749  0.00  0.00    +0.000 OA
ATOM     16  H16 UNL     1     -15.160  76.138 -11.176  0.00  0.00    +0.000 HD
ENDBRANCH   9  15
ENDBRANCH   1  12
BRANCH   4  17
ATOM     17  O3  UNL     1     -13.877  66.307 -14.286  0.00  0.00    +0.000 OA
ATOM     18  H12 UNL     1     -14.536  65.634 -13.971  0.00  0.00    +0.000 HD
ENDBRANCH   4  17
BRANCH   3  19
ATOM     19  O4  UNL     1     -14.878  66.910 -11.728  0.00  0.00    +0.000 OA
ATOM     20  H13 UNL     1     -14.963  66.107 -12.305  0.00  0.00    +0.000 HD
ENDBRANCH   3  19
BRANCH   2  21
ATOM     21  O5  UNL     1     -16.162  69.233 -11.749  0.00  0.00    +0.000 OA
ATOM     22  H14 UNL     1     -16.678  68.743 -12.440  0.00  0.00    +0.000 HD
ENDBRANCH   2  21
BRANCH   5  23
ATOM     23  C12 UNL     1     -12.374  68.267 -15.429  0.00  0.00    +0.000 C 
BRANCH  23  24
ATOM     24  O2  UNL     1     -11.621  69.401 -15.763  0.00  0.00    +0.000 OA
ATOM     25  H11 UNL     1     -10.759  69.311 -15.279  0.00  0.00    +0.000 HD
ENDBRANCH  23  24
ENDBRANCH   5  23
TORSDOF 8
ENDMDL
MODEL 8
REMARK VINA RESULT:      -4.0      1.772      2.843
REMARK  Name = .\Catechins.pdb
REMARK  8 active torsions:
REMARK  status: ('A' for Active; 'I' for Inactive)
REMARK    1  A    between atoms: C3_3  and  O7_19
REMARK    2  A    between atoms: C4_4  and  O6_18
REMARK    3  A    between atoms: C6_6  and  C7_7
REMARK    4  A    between atoms: C8_8  and  O5_17
REMARK    5  A    between atoms: C9_9  and  O4_16
REMARK    6  A    between atoms: C10_10  and  O3_15
REMARK    7  A    between atoms: C11_11  and  C12_13
REMARK    8  A    between atoms: C12_13  and  O2_14
REMARK                            x       y       z     vdW  Elec       q    Type
REMARK                         _______ _______ _______ _____ _____    ______ ____
ROOT
ATOM      1  C7  UNL     1     -13.513  70.917 -14.148  0.00  0.00    +0.000 C 
ATOM      2  C8  UNL     1     -12.549  70.279 -15.183  0.00  0.00    +0.000 C 
ATOM      3  C9  UNL     1     -12.980  68.827 -15.532  0.00  0.00    +0.000 C 
ATOM      4  C10 UNL     1     -13.686  68.173 -14.332  0.00  0.00    +0.000 C 
ATOM      5  C11 UNL     1     -14.904  69.049 -13.873  0.00  0.00    +0.000 C 
ATOM      6  O1  UNL     1     -14.818  70.398 -14.324  0.00  0.00    +0.000 OA
ENDROOT
BRANCH   1  12
ATOM      7  C1  UNL     1     -14.418  73.209 -13.544  0.00  0.00    +0.000 A 
ATOM      8  C2  UNL     1     -14.462  74.594 -13.721  0.00  0.00    +0.000 A 
ATOM      9  C3  UNL     1     -13.636  75.211 -14.671  0.00  0.00    +0.000 A 
ATOM     10  C4  UNL     1     -12.770  74.433 -15.449  0.00  0.00    +0.000 A 
ATOM     11  C5  UNL     1     -12.726  73.043 -15.272  0.00  0.00    +0.000 A 
ATOM     12  C6  UNL     1     -13.538  72.421 -14.308  0.00  0.00    +0.000 A 
BRANCH  10  13
ATOM     13  O6  UNL     1     -11.957  75.049 -16.399  0.00  0.00    +0.000 OA
ATOM     14  H15 UNL     1     -11.251  75.727 -16.134  0.00  0.00    +0.000 HD
ENDBRANCH  10  13
BRANCH   9  15
ATOM     15  O7  UNL     1     -13.676  76.592 -14.849  0.00  0.00    +0.000 OA
ATOM     16  H16 UNL     1     -14.142  77.200 -14.185  0.00  0.00    +0.000 HD
ENDBRANCH   9  15
ENDBRANCH   1  12
BRANCH   4  17
ATOM     17  O3  UNL     1     -14.084  66.863 -14.658  0.00  0.00    +0.000 OA
ATOM     18  H12 UNL     1     -13.267  66.367 -14.924  0.00  0.00    +0.000 HD
ENDBRANCH   4  17
BRANCH   3  19
ATOM     19  O4  UNL     1     -11.872  68.056 -15.918  0.00  0.00    +0.000 OA
ATOM     20  H13 UNL     1     -12.218  67.153 -16.141  0.00  0.00    +0.000 HD
ENDBRANCH   3  19
BRANCH   2  21
ATOM     21  O5  UNL     1     -11.222  70.331 -14.714  0.00  0.00    +0.000 OA
ATOM     22  H14 UNL     1     -11.239  70.140 -13.741  0.00  0.00    +0.000 HD
ENDBRANCH   2  21
BRANCH   5  23
ATOM     23  C12 UNL     1     -16.250  68.483 -14.350  0.00  0.00    +0.000 C 
BRANCH  23  24
ATOM     24  O2  UNL     1     -16.680  67.479 -13.472  0.00  0.00    +0.000 OA
ATOM     25  H11 UNL     1     -16.902  67.935 -12.619  0.00  0.00    +0.000 HD
ENDBRANCH  23  24
ENDBRANCH   5  23
TORSDOF 8
ENDMDL
MODEL 9
REMARK VINA RESULT:      -3.9      2.409      4.299
REMARK  Name = .\Catechins.pdb
REMARK  8 active torsions:
REMARK  status: ('A' for Active; 'I' for Inactive)
REMARK    1  A    between atoms: C3_3  and  O7_19
REMARK    2  A    between atoms: C4_4  and  O6_18
REMARK    3  A    between atoms: C6_6  and  C7_7
REMARK    4  A    between atoms: C8_8  and  O5_17
REMARK    5  A    between atoms: C9_9  and  O4_16
REMARK    6  A    between atoms: C10_10  and  O3_15
REMARK    7  A    between atoms: C11_11  and  C12_13
REMARK    8  A    between atoms: C12_13  and  O2_14
REMARK                            x       y       z     vdW  Elec       q    Type
REMARK                         _______ _______ _______ _____ _____    ______ ____
ROOT
ATOM      1  C7  UNL     1     -13.949  71.150 -14.419  0.00  0.00    +0.000 C 
ATOM      2  C8  UNL     1     -14.569  70.360 -13.237  0.00  0.00    +0.000 C 
ATOM      3  C9  UNL     1     -14.080  68.885 -13.228  0.00  0.00    +0.000 C 
ATOM      4  C10 UNL     1     -13.779  68.410 -14.659  0.00  0.00    +0.000 C 
ATOM      5  C11 UNL     1     -12.739  69.364 -15.342  0.00  0.00    +0.000 C 
ATOM      6  O1  UNL     1     -12.660  70.640 -14.714  0.00  0.00    +0.000 OA
ENDROOT
BRANCH   1  12
ATOM      7  C1  UNL     1     -13.310  73.535 -15.000  0.00  0.00    +0.000 A 
ATOM      8  C2  UNL     1     -13.187  74.886 -14.666  0.00  0.00    +0.000 A 
ATOM      9  C3  UNL     1     -13.590  75.340 -13.402  0.00  0.00    +0.000 A 
ATOM     10  C4  UNL     1     -14.111  74.434 -12.471  0.00  0.00    +0.000 A 
ATOM     11  C5  UNL     1     -14.234  73.077 -12.807  0.00  0.00    +0.000 A 
ATOM     12  C6  UNL     1     -13.848  72.620 -14.078  0.00  0.00    +0.000 A 
BRANCH  10  13
ATOM     13  O6  UNL     1     -14.503  74.887 -11.212  0.00  0.00    +0.000 OA
ATOM     14  H15 UNL     1     -14.061  74.549 -10.366  0.00  0.00    +0.000 HD
ENDBRANCH  10  13
BRANCH   9  15
ATOM     15  O7  UNL     1     -13.471  76.687 -13.066  0.00  0.00    +0.000 OA
ATOM     16  H16 UNL     1     -13.496  76.997 -12.102  0.00  0.00    +0.000 HD
ENDBRANCH   9  15
ENDBRANCH   1  12
BRANCH   4  17
ATOM     17  O3  UNL     1     -13.326  67.078 -14.643  0.00  0.00    +0.000 OA
ATOM     18  H12 UNL     1     -13.860  66.594 -13.960  0.00  0.00    +0.000 HD
ENDBRANCH   4  17
BRANCH   3  19
ATOM     19  O4  UNL     1     -15.035  68.046 -12.632  0.00  0.00    +0.000 OA
ATOM     20  H13 UNL     1     -15.098  67.237 -13.203  0.00  0.00    +0.000 HD
ENDBRANCH   3  19
BRANCH   2  21
ATOM     21  O5  UNL     1     -15.974  70.444 -13.275  0.00  0.00    +0.000 OA
ATOM     22  H14 UNL     1     -16.232  70.779 -14.172  0.00  0.00    +0.000 HD
ENDBRANCH   2  21
BRANCH   5  23
ATOM     23  C12 UNL     1     -11.322  68.770 -15.370  0.00  0.00    +0.000 C 
BRANCH  23  24
ATOM     24  O2  UNL     1     -10.398  69.764 -15.719  0.00  0.00    +0.000 OA
ATOM     25  H11 UNL     1     -10.640  70.057 -16.636  0.00  0.00    +0.000 HD
ENDBRANCH  23  24
ENDBRANCH   5  23
TORSDOF 8
ENDMDL
