MODEL 1
REMARK VINA RESULT:      -4.4      0.000      0.000
REMARK  Name = .\Catechins.pdb
REMARK  8 active torsions:
REMARK  status: ('A' for Active; 'I' for Inactive)
REMARK    1  A    between atoms: C3_3  and  O7_19
REMARK    2  A    between atoms: C4_4  and  O6_18
REMARK    3  A    between atoms: C6_6  and  C7_7
REMARK    4  A    between atoms: C8_8  and  O5_17
REMARK    5  A    between atoms: C9_9  and  O4_16
REMARK    6  A    between atoms: C10_10  and  O3_15
REMARK    7  A    between atoms: C11_11  and  C12_13
REMARK    8  A    between atoms: C12_13  and  O2_14
REMARK                            x       y       z     vdW  Elec       q    Type
REMARK                         _______ _______ _______ _____ _____    ______ ____
ROOT
ATOM      1  C7  UNL     1     -15.677  80.691  43.073  0.00  0.00    +0.000 C 
ATOM      2  C8  UNL     1     -16.035  79.251  43.525  0.00  0.00    +0.000 C 
ATOM      3  C9  UNL     1     -16.446  79.217  45.023  0.00  0.00    +0.000 C 
ATOM      4  C10 UNL     1     -15.722  80.327  45.805  0.00  0.00    +0.000 C 
ATOM      5  C11 UNL     1     -16.006  81.726  45.153  0.00  0.00    +0.000 C 
ATOM      6  O1  UNL     1     -16.449  81.629  43.803  0.00  0.00    +0.000 OA
ENDROOT
BRANCH   1  12
ATOM      7  C1  UNL     1     -17.246  80.789  41.083  0.00  0.00    +0.000 A 
ATOM      8  C2  UNL     1     -17.478  80.911  39.710  0.00  0.00    +0.000 A 
ATOM      9  C3  UNL     1     -16.405  81.095  38.827  0.00  0.00    +0.000 A 
ATOM     10  C4  UNL     1     -15.097  81.150  39.324  0.00  0.00    +0.000 A 
ATOM     11  C5  UNL     1     -14.865  81.027  40.701  0.00  0.00    +0.000 A 
ATOM     12  C6  UNL     1     -15.938  80.860  41.593  0.00  0.00    +0.000 A 
BRANCH  10  13
ATOM     13  O6  UNL     1     -14.032  81.324  38.441  0.00  0.00    +0.000 OA
ATOM     14  H15 UNL     1     -13.174  80.793  38.535  0.00  0.00    +0.000 HD
ENDBRANCH  10  13
BRANCH   9  15
ATOM     15  O7  UNL     1     -16.632  81.218  37.458  0.00  0.00    +0.000 OA
ATOM     16  H16 UNL     1     -17.437  80.792  37.013  0.00  0.00    +0.000 HD
ENDBRANCH   9  15
ENDBRANCH   1  12
BRANCH   4  17
ATOM     17  O3  UNL     1     -16.107  80.299  47.158  0.00  0.00    +0.000 OA
ATOM     18  H12 UNL     1     -16.879  80.915  47.255  0.00  0.00    +0.000 HD
ENDBRANCH   4  17
BRANCH   3  19
ATOM     19  O4  UNL     1     -16.163  77.964  45.592  0.00  0.00    +0.000 OA
ATOM     20  H13 UNL     1     -15.659  77.450  44.909  0.00  0.00    +0.000 HD
ENDBRANCH   3  19
BRANCH   2  21
ATOM     21  O5  UNL     1     -14.966  78.374  43.258  0.00  0.00    +0.000 OA
ATOM     22  H14 UNL     1     -14.778  77.865  44.088  0.00  0.00    +0.000 HD
ENDBRANCH   2  21
BRANCH   5  23
ATOM     23  C12 UNL     1     -17.053  82.537  45.931  0.00  0.00    +0.000 C 
BRANCH  23  24
ATOM     24  O2  UNL     1     -18.306  81.917  45.827  0.00  0.00    +0.000 OA
ATOM     25  H11 UNL     1     -18.790  82.392  45.102  0.00  0.00    +0.000 HD
ENDBRANCH  23  24
ENDBRANCH   5  23
TORSDOF 8
ENDMDL
MODEL 2
REMARK VINA RESULT:      -4.2      1.347      2.872
REMARK  Name = .\Catechins.pdb
REMARK  8 active torsions:
REMARK  status: ('A' for Active; 'I' for Inactive)
REMARK    1  A    between atoms: C3_3  and  O7_19
REMARK    2  A    between atoms: C4_4  and  O6_18
REMARK    3  A    between atoms: C6_6  and  C7_7
REMARK    4  A    between atoms: C8_8  and  O5_17
REMARK    5  A    between atoms: C9_9  and  O4_16
REMARK    6  A    between atoms: C10_10  and  O3_15
REMARK    7  A    between atoms: C11_11  and  C12_13
REMARK    8  A    between atoms: C12_13  and  O2_14
REMARK                            x       y       z     vdW  Elec       q    Type
REMARK                         _______ _______ _______ _____ _____    ______ ____
ROOT
ATOM      1  C7  UNL     1     -17.083  80.618  42.300  0.00  0.00    +0.000 C 
ATOM      2  C8  UNL     1     -17.283  81.929  43.105  0.00  0.00    +0.000 C 
ATOM      3  C9  UNL     1     -17.228  81.663  44.635  0.00  0.00    +0.000 C 
ATOM      4  C10 UNL     1     -17.727  80.244  44.952  0.00  0.00    +0.000 C 
ATOM      5  C11 UNL     1     -16.901  79.182  44.145  0.00  0.00    +0.000 C 
ATOM      6  O1  UNL     1     -16.235  79.740  43.017  0.00  0.00    +0.000 OA
ENDROOT
BRANCH   1  12
ATOM      7  C1  UNL     1     -17.262  80.861  39.781  0.00  0.00    +0.000 A 
ATOM      8  C2  UNL     1     -16.689  81.105  38.530  0.00  0.00    +0.000 A 
ATOM      9  C3  UNL     1     -15.323  81.397  38.424  0.00  0.00    +0.000 A 
ATOM     10  C4  UNL     1     -14.529  81.438  39.577  0.00  0.00    +0.000 A 
ATOM     11  C5  UNL     1     -15.104  81.194  40.832  0.00  0.00    +0.000 A 
ATOM     12  C6  UNL     1     -16.477  80.918  40.946  0.00  0.00    +0.000 A 
BRANCH  10  13
ATOM     13  O6  UNL     1     -13.168  81.720  39.467  0.00  0.00    +0.000 OA
ATOM     14  H15 UNL     1     -12.463  81.028  39.693  0.00  0.00    +0.000 HD
ENDBRANCH  10  13
BRANCH   9  15
ATOM     15  O7  UNL     1     -14.749  81.641  37.179  0.00  0.00    +0.000 OA
ATOM     16  H16 UNL     1     -13.889  82.170  37.085  0.00  0.00    +0.000 HD
ENDBRANCH   9  15
ENDBRANCH   1  12
BRANCH   4  17
ATOM     17  O3  UNL     1     -17.663  80.005  46.338  0.00  0.00    +0.000 OA
ATOM     18  H12 UNL     1     -16.936  79.346  46.488  0.00  0.00    +0.000 HD
ENDBRANCH   4  17
BRANCH   3  19
ATOM     19  O4  UNL     1     -17.991  82.611  45.335  0.00  0.00    +0.000 OA
ATOM     20  H13 UNL     1     -17.360  83.108  45.919  0.00  0.00    +0.000 HD
ENDBRANCH   3  19
BRANCH   2  21
ATOM     21  O5  UNL     1     -18.487  82.556  42.728  0.00  0.00    +0.000 OA
ATOM     22  H14 UNL     1     -19.195  82.247  43.349  0.00  0.00    +0.000 HD
ENDBRANCH   2  21
BRANCH   5  23
ATOM     23  C12 UNL     1     -15.845  78.476  45.009  0.00  0.00    +0.000 C 
BRANCH  23  24
ATOM     24  O2  UNL     1     -15.329  77.371  44.318  0.00  0.00    +0.000 OA
ATOM     25  H11 UNL     1     -15.297  76.626  44.974  0.00  0.00    +0.000 HD
ENDBRANCH  23  24
ENDBRANCH   5  23
TORSDOF 8
ENDMDL
MODEL 3
REMARK VINA RESULT:      -4.0      1.558      6.201
REMARK  Name = .\Catechins.pdb
REMARK  8 active torsions:
REMARK  status: ('A' for Active; 'I' for Inactive)
REMARK    1  A    between atoms: C3_3  and  O7_19
REMARK    2  A    between atoms: C4_4  and  O6_18
REMARK    3  A    between atoms: C6_6  and  C7_7
REMARK    4  A    between atoms: C8_8  and  O5_17
REMARK    5  A    between atoms: C9_9  and  O4_16
REMARK    6  A    between atoms: C10_10  and  O3_15
REMARK    7  A    between atoms: C11_11  and  C12_13
REMARK    8  A    between atoms: C12_13  and  O2_14
REMARK                            x       y       z     vdW  Elec       q    Type
REMARK                         _______ _______ _______ _____ _____    ______ ____
ROOT
ATOM      1  C7  UNL     1     -16.274  81.347  41.798  0.00  0.00    +0.000 C 
ATOM      2  C8  UNL     1     -17.401  80.698  40.953  0.00  0.00    +0.000 C 
ATOM      3  C9  UNL     1     -17.068  80.747  39.437  0.00  0.00    +0.000 C 
ATOM      4  C10 UNL     1     -16.202  81.978  39.117  0.00  0.00    +0.000 C 
ATOM      5  C11 UNL     1     -14.906  81.977  40.000  0.00  0.00    +0.000 C 
ATOM      6  O1  UNL     1     -15.025  81.157  41.158  0.00  0.00    +0.000 OA
ENDROOT
BRANCH   1  12
ATOM      7  C1  UNL     1     -16.549  81.510  44.314  0.00  0.00    +0.000 A 
ATOM      8  C2  UNL     1     -16.477  80.952  45.594  0.00  0.00    +0.000 A 
ATOM      9  C3  UNL     1     -16.078  79.619  45.760  0.00  0.00    +0.000 A 
ATOM     10  C4  UNL     1     -15.744  78.847  44.640  0.00  0.00    +0.000 A 
ATOM     11  C5  UNL     1     -15.817  79.407  43.357  0.00  0.00    +0.000 A 
ATOM     12  C6  UNL     1     -16.234  80.738  43.182  0.00  0.00    +0.000 A 
BRANCH  10  13
ATOM     13  O6  UNL     1     -15.339  77.524  44.811  0.00  0.00    +0.000 OA
ATOM     14  H15 UNL     1     -14.565  77.281  45.418  0.00  0.00    +0.000 HD
ENDBRANCH  10  13
BRANCH   9  15
ATOM     15  O7  UNL     1     -16.006  79.059  47.034  0.00  0.00    +0.000 OA
ATOM     16  H16 UNL     1     -16.748  78.472  47.398  0.00  0.00    +0.000 HD
ENDBRANCH   9  15
ENDBRANCH   1  12
BRANCH   4  17
ATOM     17  O3  UNL     1     -15.893  82.011  37.744  0.00  0.00    +0.000 OA
ATOM     18  H12 UNL     1     -16.169  81.138  37.361  0.00  0.00    +0.000 HD
ENDBRANCH   4  17
BRANCH   3  19
ATOM     19  O4  UNL     1     -18.242  80.770  38.666  0.00  0.00    +0.000 OA
ATOM     20  H13 UNL     1     -18.875  80.137  39.095  0.00  0.00    +0.000 HD
ENDBRANCH   3  19
BRANCH   2  21
ATOM     21  O5  UNL     1     -18.639  81.308  41.235  0.00  0.00    +0.000 OA
ATOM     22  H14 UNL     1     -18.839  81.154  42.194  0.00  0.00    +0.000 HD
ENDBRANCH   2  21
BRANCH   5  23
ATOM     23  C12 UNL     1     -13.664  81.511  39.224  0.00  0.00    +0.000 C 
BRANCH  23  24
ATOM     24  O2  UNL     1     -12.622  81.234  40.119  0.00  0.00    +0.000 OA
ATOM     25  H11 UNL     1     -12.049  82.044  40.134  0.00  0.00    +0.000 HD
ENDBRANCH  23  24
ENDBRANCH   5  23
TORSDOF 8
ENDMDL
MODEL 4
REMARK VINA RESULT:      -4.0      0.620      1.550
REMARK  Name = .\Catechins.pdb
REMARK  8 active torsions:
REMARK  status: ('A' for Active; 'I' for Inactive)
REMARK    1  A    between atoms: C3_3  and  O7_19
REMARK    2  A    between atoms: C4_4  and  O6_18
REMARK    3  A    between atoms: C6_6  and  C7_7
REMARK    4  A    between atoms: C8_8  and  O5_17
REMARK    5  A    between atoms: C9_9  and  O4_16
REMARK    6  A    between atoms: C10_10  and  O3_15
REMARK    7  A    between atoms: C11_11  and  C12_13
REMARK    8  A    between atoms: C12_13  and  O2_14
REMARK                            x       y       z     vdW  Elec       q    Type
REMARK                         _______ _______ _______ _____ _____    ______ ____
ROOT
ATOM      1  C7  UNL     1     -15.648  80.692  43.081  0.00  0.00    +0.000 C 
ATOM      2  C8  UNL     1     -16.083  79.280  43.553  0.00  0.00    +0.000 C 
ATOM      3  C9  UNL     1     -16.541  79.299  45.037  0.00  0.00    +0.000 C 
ATOM      4  C10 UNL     1     -15.793  80.394  45.817  0.00  0.00    +0.000 C 
ATOM      5  C11 UNL     1     -15.995  81.788  45.126  0.00  0.00    +0.000 C 
ATOM      6  O1  UNL     1     -16.399  81.679  43.765  0.00  0.00    +0.000 OA
ENDROOT
BRANCH   1  12
ATOM      7  C1  UNL     1     -14.776  81.144  40.743  0.00  0.00    +0.000 A 
ATOM      8  C2  UNL     1     -14.979  81.312  39.370  0.00  0.00    +0.000 A 
ATOM      9  C3  UNL     1     -16.265  81.188  38.827  0.00  0.00    +0.000 A 
ATOM     10  C4  UNL     1     -17.350  80.901  39.665  0.00  0.00    +0.000 A 
ATOM     11  C5  UNL     1     -17.145  80.732  41.043  0.00  0.00    +0.000 A 
ATOM     12  C6  UNL     1     -15.855  80.838  41.590  0.00  0.00    +0.000 A 
BRANCH  10  13
ATOM     13  O6  UNL     1     -18.628  80.786  39.123  0.00  0.00    +0.000 OA
ATOM     14  H15 UNL     1     -19.356  81.459  39.334  0.00  0.00    +0.000 HD
ENDBRANCH  10  13
BRANCH   9  15
ATOM     15  O7  UNL     1     -16.471  81.353  37.460  0.00  0.00    +0.000 OA
ATOM     16  H16 UNL     1     -17.111  82.053  37.100  0.00  0.00    +0.000 HD
ENDBRANCH   9  15
ENDBRANCH   1  12
BRANCH   4  17
ATOM     17  O3  UNL     1     -16.221  80.414  47.157  0.00  0.00    +0.000 OA
ATOM     18  H12 UNL     1     -17.039  80.975  47.195  0.00  0.00    +0.000 HD
ENDBRANCH   4  17
BRANCH   3  19
ATOM     19  O4  UNL     1     -16.332  78.048  45.642  0.00  0.00    +0.000 OA
ATOM     20  H13 UNL     1     -16.928  77.405  45.177  0.00  0.00    +0.000 HD
ENDBRANCH   3  19
BRANCH   2  21
ATOM     21  O5  UNL     1     -15.046  78.351  43.339  0.00  0.00    +0.000 OA
ATOM     22  H14 UNL     1     -14.583  78.211  44.205  0.00  0.00    +0.000 HD
ENDBRANCH   2  21
BRANCH   5  23
ATOM     23  C12 UNL     1     -17.029  82.662  45.852  0.00  0.00    +0.000 C 
BRANCH  23  24
ATOM     24  O2  UNL     1     -18.304  82.098  45.718  0.00  0.00    +0.000 OA
ATOM     25  H11 UNL     1     -18.212  81.143  45.972  0.00  0.00    +0.000 HD
ENDBRANCH  23  24
ENDBRANCH   5  23
TORSDOF 8
ENDMDL
MODEL 5
REMARK VINA RESULT:      -4.0      1.330      3.154
REMARK  Name = .\Catechins.pdb
REMARK  8 active torsions:
REMARK  status: ('A' for Active; 'I' for Inactive)
REMARK    1  A    between atoms: C3_3  and  O7_19
REMARK    2  A    between atoms: C4_4  and  O6_18
REMARK    3  A    between atoms: C6_6  and  C7_7
REMARK    4  A    between atoms: C8_8  and  O5_17
REMARK    5  A    between atoms: C9_9  and  O4_16
REMARK    6  A    between atoms: C10_10  and  O3_15
REMARK    7  A    between atoms: C11_11  and  C12_13
REMARK    8  A    between atoms: C12_13  and  O2_14
REMARK                            x       y       z     vdW  Elec       q    Type
REMARK                         _______ _______ _______ _____ _____    ______ ____
ROOT
ATOM      1  C7  UNL     1     -16.989  80.620  42.166  0.00  0.00    +0.000 C 
ATOM      2  C8  UNL     1     -17.166  81.952  42.941  0.00  0.00    +0.000 C 
ATOM      3  C9  UNL     1     -17.129  81.719  44.476  0.00  0.00    +0.000 C 
ATOM      4  C10 UNL     1     -17.664  80.318  44.821  0.00  0.00    +0.000 C 
ATOM      5  C11 UNL     1     -16.855  79.221  44.044  0.00  0.00    +0.000 C 
ATOM      6  O1  UNL     1     -16.167  79.738  42.909  0.00  0.00    +0.000 OA
ENDROOT
BRANCH   1  12
ATOM      7  C1  UNL     1     -15.014  81.249  40.703  0.00  0.00    +0.000 A 
ATOM      8  C2  UNL     1     -14.452  81.518  39.452  0.00  0.00    +0.000 A 
ATOM      9  C3  UNL     1     -15.236  81.429  38.293  0.00  0.00    +0.000 A 
ATOM     10  C4  UNL     1     -16.587  81.075  38.392  0.00  0.00    +0.000 A 
ATOM     11  C5  UNL     1     -17.150  80.805  39.648  0.00  0.00    +0.000 A 
ATOM     12  C6  UNL     1     -16.365  80.876  40.812  0.00  0.00    +0.000 A 
BRANCH  10  13
ATOM     13  O6  UNL     1     -17.365  80.996  37.238  0.00  0.00    +0.000 OA
ATOM     14  H15 UNL     1     -18.369  81.134  37.265  0.00  0.00    +0.000 HD
ENDBRANCH  10  13
BRANCH   9  15
ATOM     15  O7  UNL     1     -14.679  81.695  37.045  0.00  0.00    +0.000 OA
ATOM     16  H16 UNL     1     -15.029  81.253  36.202  0.00  0.00    +0.000 HD
ENDBRANCH   9  15
ENDBRANCH   1  12
BRANCH   4  17
ATOM     17  O3  UNL     1     -17.616  80.108  46.211  0.00  0.00    +0.000 OA
ATOM     18  H12 UNL     1     -16.721  79.734  46.420  0.00  0.00    +0.000 HD
ENDBRANCH   4  17
BRANCH   3  19
ATOM     19  O4  UNL     1     -17.876  82.699  45.150  0.00  0.00    +0.000 OA
ATOM     20  H13 UNL     1     -18.026  82.359  46.070  0.00  0.00    +0.000 HD
ENDBRANCH   3  19
BRANCH   2  21
ATOM     21  O5  UNL     1     -18.352  82.598  42.540  0.00  0.00    +0.000 OA
ATOM     22  H14 UNL     1     -18.287  82.769  41.565  0.00  0.00    +0.000 HD
ENDBRANCH   2  21
BRANCH   5  23
ATOM     23  C12 UNL     1     -15.823  78.510  44.932  0.00  0.00    +0.000 C 
BRANCH  23  24
ATOM     24  O2  UNL     1     -15.316  77.387  44.264  0.00  0.00    +0.000 OA
ATOM     25  H11 UNL     1     -14.635  77.729  43.628  0.00  0.00    +0.000 HD
ENDBRANCH  23  24
ENDBRANCH   5  23
TORSDOF 8
ENDMDL
MODEL 6
REMARK VINA RESULT:      -4.0      1.366      6.160
REMARK  Name = .\Catechins.pdb
REMARK  8 active torsions:
REMARK  status: ('A' for Active; 'I' for Inactive)
REMARK    1  A    between atoms: C3_3  and  O7_19
REMARK    2  A    between atoms: C4_4  and  O6_18
REMARK    3  A    between atoms: C6_6  and  C7_7
REMARK    4  A    between atoms: C8_8  and  O5_17
REMARK    5  A    between atoms: C9_9  and  O4_16
REMARK    6  A    between atoms: C10_10  and  O3_15
REMARK    7  A    between atoms: C11_11  and  C12_13
REMARK    8  A    between atoms: C12_13  and  O2_14
REMARK                            x       y       z     vdW  Elec       q    Type
REMARK                         _______ _______ _______ _____ _____    ______ ____
ROOT
ATOM      1  C7  UNL     1     -15.772  80.537  41.600  0.00  0.00    +0.000 C 
ATOM      2  C8  UNL     1     -14.296  80.987  41.446  0.00  0.00    +0.000 C 
ATOM      3  C9  UNL     1     -14.069  81.719  40.094  0.00  0.00    +0.000 C 
ATOM      4  C10 UNL     1     -15.036  81.185  39.024  0.00  0.00    +0.000 C 
ATOM      5  C11 UNL     1     -16.520  81.317  39.517  0.00  0.00    +0.000 C 
ATOM      6  O1  UNL     1     -16.624  81.450  40.932  0.00  0.00    +0.000 OA
ENDROOT
BRANCH   1  12
ATOM      7  C1  UNL     1     -16.592  81.610  43.747  0.00  0.00    +0.000 A 
ATOM      8  C2  UNL     1     -16.909  81.545  45.106  0.00  0.00    +0.000 A 
ATOM      9  C3  UNL     1     -16.779  80.335  45.803  0.00  0.00    +0.000 A 
ATOM     10  C4  UNL     1     -16.325  79.192  45.134  0.00  0.00    +0.000 A 
ATOM     11  C5  UNL     1     -16.007  79.259  43.770  0.00  0.00    +0.000 A 
ATOM     12  C6  UNL     1     -16.152  80.464  43.062  0.00  0.00    +0.000 A 
BRANCH  10  13
ATOM     13  O6  UNL     1     -16.189  77.993  45.833  0.00  0.00    +0.000 OA
ATOM     14  H15 UNL     1     -16.401  77.101  45.401  0.00  0.00    +0.000 HD
ENDBRANCH  10  13
BRANCH   9  15
ATOM     15  O7  UNL     1     -17.095  80.265  47.158  0.00  0.00    +0.000 OA
ATOM     16  H16 UNL     1     -16.618  79.624  47.782  0.00  0.00    +0.000 HD
ENDBRANCH   9  15
ENDBRANCH   1  12
BRANCH   4  17
ATOM     17  O3  UNL     1     -14.834  81.860  37.806  0.00  0.00    +0.000 OA
ATOM     18  H12 UNL     1     -14.592  82.797  38.027  0.00  0.00    +0.000 HD
ENDBRANCH   4  17
BRANCH   3  19
ATOM     19  O4  UNL     1     -12.741  81.570  39.661  0.00  0.00    +0.000 OA
ATOM     20  H13 UNL     1     -12.778  81.416  38.682  0.00  0.00    +0.000 HD
ENDBRANCH   3  19
BRANCH   2  21
ATOM     21  O5  UNL     1     -13.430  79.886  41.595  0.00  0.00    +0.000 OA
ATOM     22  H14 UNL     1     -13.645  79.449  42.458  0.00  0.00    +0.000 HD
ENDBRANCH   2  21
BRANCH   5  23
ATOM     23  C12 UNL     1     -17.249  82.510  38.881  0.00  0.00    +0.000 C 
BRANCH  23  24
ATOM     24  O2  UNL     1     -17.744  82.146  37.622  0.00  0.00    +0.000 OA
ATOM     25  H11 UNL     1     -17.238  81.337  37.349  0.00  0.00    +0.000 HD
ENDBRANCH  23  24
ENDBRANCH   5  23
TORSDOF 8
ENDMDL
MODEL 7
REMARK VINA RESULT:      -3.8      1.638      1.953
REMARK  Name = .\Catechins.pdb
REMARK  8 active torsions:
REMARK  status: ('A' for Active; 'I' for Inactive)
REMARK    1  A    between atoms: C3_3  and  O7_19
REMARK    2  A    between atoms: C4_4  and  O6_18
REMARK    3  A    between atoms: C6_6  and  C7_7
REMARK    4  A    between atoms: C8_8  and  O5_17
REMARK    5  A    between atoms: C9_9  and  O4_16
REMARK    6  A    between atoms: C10_10  and  O3_15
REMARK    7  A    between atoms: C11_11  and  C12_13
REMARK    8  A    between atoms: C12_13  and  O2_14
REMARK                            x       y       z     vdW  Elec       q    Type
REMARK                         _______ _______ _______ _____ _____    ______ ____
ROOT
ATOM      1  C7  UNL     1     -16.561  80.358  43.079  0.00  0.00    +0.000 C 
ATOM      2  C8  UNL     1     -17.852  79.607  43.499  0.00  0.00    +0.000 C 
ATOM      3  C9  UNL     1     -17.885  79.358  45.032  0.00  0.00    +0.000 C 
ATOM      4  C10 UNL     1     -16.457  79.214  45.584  0.00  0.00    +0.000 C 
ATOM      5  C11 UNL     1     -15.600  80.476  45.216  0.00  0.00    +0.000 C 
ATOM      6  O1  UNL     1     -16.142  81.215  44.126  0.00  0.00    +0.000 OA
ENDROOT
BRANCH   1  12
ATOM      7  C1  UNL     1     -17.896  82.051  41.743  0.00  0.00    +0.000 A 
ATOM      8  C2  UNL     1     -18.137  82.771  40.570  0.00  0.00    +0.000 A 
ATOM      9  C3  UNL     1     -17.297  82.611  39.459  0.00  0.00    +0.000 A 
ATOM     10  C4  UNL     1     -16.218  81.721  39.525  0.00  0.00    +0.000 A 
ATOM     11  C5  UNL     1     -15.977  80.999  40.703  0.00  0.00    +0.000 A 
ATOM     12  C6  UNL     1     -16.805  81.168  41.826  0.00  0.00    +0.000 A 
BRANCH  10  13
ATOM     13  O6  UNL     1     -15.390  81.558  38.415  0.00  0.00    +0.000 OA
ATOM     14  H15 UNL     1     -14.872  82.335  38.022  0.00  0.00    +0.000 HD
ENDBRANCH  10  13
BRANCH   9  15
ATOM     15  O7  UNL     1     -17.533  83.328  38.289  0.00  0.00    +0.000 OA
ATOM     16  H16 UNL     1     -18.450  83.351  37.856  0.00  0.00    +0.000 HD
ENDBRANCH   9  15
ENDBRANCH   1  12
BRANCH   4  17
ATOM     17  O3  UNL     1     -16.492  79.000  46.975  0.00  0.00    +0.000 OA
ATOM     18  H12 UNL     1     -15.703  79.462  47.362  0.00  0.00    +0.000 HD
ENDBRANCH   4  17
BRANCH   3  19
ATOM     19  O4  UNL     1     -18.638  78.213  45.337  0.00  0.00    +0.000 OA
ATOM     20  H13 UNL     1     -17.990  77.510  45.603  0.00  0.00    +0.000 HD
ENDBRANCH   3  19
BRANCH   2  21
ATOM     21  O5  UNL     1     -17.980  78.408  42.773  0.00  0.00    +0.000 OA
ATOM     22  H14 UNL     1     -18.280  77.704  43.404  0.00  0.00    +0.000 HD
ENDBRANCH   2  21
BRANCH   5  23
ATOM     23  C12 UNL     1     -15.435  81.441  46.399  0.00  0.00    +0.000 C 
BRANCH  23  24
ATOM     24  O2  UNL     1     -14.313  81.077  47.155  0.00  0.00    +0.000 OA
ATOM     25  H11 UNL     1     -13.933  81.923  47.511  0.00  0.00    +0.000 HD
ENDBRANCH  23  24
ENDBRANCH   5  23
TORSDOF 8
ENDMDL
MODEL 8
REMARK VINA RESULT:      -3.4      2.292      6.378
REMARK  Name = .\Catechins.pdb
REMARK  8 active torsions:
REMARK  status: ('A' for Active; 'I' for Inactive)
REMARK    1  A    between atoms: C3_3  and  O7_19
REMARK    2  A    between atoms: C4_4  and  O6_18
REMARK    3  A    between atoms: C6_6  and  C7_7
REMARK    4  A    between atoms: C8_8  and  O5_17
REMARK    5  A    between atoms: C9_9  and  O4_16
REMARK    6  A    between atoms: C10_10  and  O3_15
REMARK    7  A    between atoms: C11_11  and  C12_13
REMARK    8  A    between atoms: C12_13  and  O2_14
REMARK                            x       y       z     vdW  Elec       q    Type
REMARK                         _______ _______ _______ _____ _____    ______ ____
ROOT
ATOM      1  C7  UNL     1     -17.937  81.929  41.494  0.00  0.00    +0.000 C 
ATOM      2  C8  UNL     1     -17.492  80.633  40.766  0.00  0.00    +0.000 C 
ATOM      3  C9  UNL     1     -17.497  80.825  39.224  0.00  0.00    +0.000 C 
ATOM      4  C10 UNL     1     -18.568  81.849  38.813  0.00  0.00    +0.000 C 
ATOM      5  C11 UNL     1     -18.343  83.206  39.568  0.00  0.00    +0.000 C 
ATOM      6  O1  UNL     1     -17.545  83.062  40.740  0.00  0.00    +0.000 OA
ENDROOT
BRANCH   1  12
ATOM      7  C1  UNL     1     -16.339  81.070  43.267  0.00  0.00    +0.000 A 
ATOM      8  C2  UNL     1     -15.797  81.117  44.555  0.00  0.00    +0.000 A 
ATOM      9  C3  UNL     1     -16.235  82.085  45.469  0.00  0.00    +0.000 A 
ATOM     10  C4  UNL     1     -17.223  83.003  45.092  0.00  0.00    +0.000 A 
ATOM     11  C5  UNL     1     -17.766  82.955  43.800  0.00  0.00    +0.000 A 
ATOM     12  C6  UNL     1     -17.319  81.998  42.873  0.00  0.00    +0.000 A 
BRANCH  10  13
ATOM     13  O6  UNL     1     -17.661  83.959  46.007  0.00  0.00    +0.000 OA
ATOM     14  H15 UNL     1     -17.578  84.951  45.818  0.00  0.00    +0.000 HD
ENDBRANCH  10  13
BRANCH   9  15
ATOM     15  O7  UNL     1     -15.696  82.136  46.753  0.00  0.00    +0.000 OA
ATOM     16  H16 UNL     1     -16.285  82.111  47.577  0.00  0.00    +0.000 HD
ENDBRANCH   9  15
ENDBRANCH   1  12
BRANCH   4  17
ATOM     17  O3  UNL     1     -18.560  82.028  37.417  0.00  0.00    +0.000 OA
ATOM     18  H12 UNL     1     -18.003  81.301  37.032  0.00  0.00    +0.000 HD
ENDBRANCH   4  17
BRANCH   3  19
ATOM     19  O4  UNL     1     -17.721  79.603  38.569  0.00  0.00    +0.000 OA
ATOM     20  H13 UNL     1     -16.860  79.111  38.584  0.00  0.00    +0.000 HD
ENDBRANCH   3  19
BRANCH   2  21
ATOM     21  O5  UNL     1     -18.298  79.548  41.159  0.00  0.00    +0.000 OA
ATOM     22  H14 UNL     1     -17.825  79.069  41.887  0.00  0.00    +0.000 HD
ENDBRANCH   2  21
BRANCH   5  23
ATOM     23  C12 UNL     1     -17.682  84.272  38.682  0.00  0.00    +0.000 C 
BRANCH  23  24
ATOM     24  O2  UNL     1     -16.344  83.931  38.446  0.00  0.00    +0.000 OA
ATOM     25  H11 UNL     1     -16.309  82.939  38.438  0.00  0.00    +0.000 HD
ENDBRANCH  23  24
ENDBRANCH   5  23
TORSDOF 8
ENDMDL
MODEL 9
REMARK VINA RESULT:      -3.2      1.660      3.130
REMARK  Name = .\Catechins.pdb
REMARK  8 active torsions:
REMARK  status: ('A' for Active; 'I' for Inactive)
REMARK    1  A    between atoms: C3_3  and  O7_19
REMARK    2  A    between atoms: C4_4  and  O6_18
REMARK    3  A    between atoms: C6_6  and  C7_7
REMARK    4  A    between atoms: C8_8  and  O5_17
REMARK    5  A    between atoms: C9_9  and  O4_16
REMARK    6  A    between atoms: C10_10  and  O3_15
REMARK    7  A    between atoms: C11_11  and  C12_13
REMARK    8  A    between atoms: C12_13  and  O2_14
REMARK                            x       y       z     vdW  Elec       q    Type
REMARK                         _______ _______ _______ _____ _____    ______ ____
ROOT
ATOM      1  C7  UNL     1     -17.364  81.068  43.560  0.00  0.00    +0.000 C 
ATOM      2  C8  UNL     1     -16.596  82.176  44.328  0.00  0.00    +0.000 C 
ATOM      3  C9  UNL     1     -15.752  81.576  45.486  0.00  0.00    +0.000 C 
ATOM      4  C10 UNL     1     -16.417  80.301  46.032  0.00  0.00    +0.000 C 
ATOM      5  C11 UNL     1     -16.640  79.265  44.875  0.00  0.00    +0.000 C 
ATOM      6  O1  UNL     1     -16.619  79.864  43.583  0.00  0.00    +0.000 OA
ENDROOT
BRANCH   1  12
ATOM      7  C1  UNL     1     -18.237  82.712  41.837  0.00  0.00    +0.000 A 
ATOM      8  C2  UNL     1     -18.490  83.080  40.513  0.00  0.00    +0.000 A 
ATOM      9  C3  UNL     1     -18.128  82.226  39.462  0.00  0.00    +0.000 A 
ATOM     10  C4  UNL     1     -17.516  80.998  39.742  0.00  0.00    +0.000 A 
ATOM     11  C5  UNL     1     -17.262  80.629  41.071  0.00  0.00    +0.000 A 
ATOM     12  C6  UNL     1     -17.607  81.489  42.128  0.00  0.00    +0.000 A 
BRANCH  10  13
ATOM     13  O6  UNL     1     -17.165  80.148  38.694  0.00  0.00    +0.000 OA
ATOM     14  H15 UNL     1     -17.027  80.496  37.753  0.00  0.00    +0.000 HD
ENDBRANCH  10  13
BRANCH   9  15
ATOM     15  O7  UNL     1     -18.377  82.590  38.141  0.00  0.00    +0.000 OA
ATOM     16  H16 UNL     1     -17.674  82.481  37.418  0.00  0.00    +0.000 HD
ENDBRANCH   9  15
ENDBRANCH   1  12
BRANCH   4  17
ATOM     17  O3  UNL     1     -15.641  79.756  47.072  0.00  0.00    +0.000 OA
ATOM     18  H12 UNL     1     -14.706  80.053  46.926  0.00  0.00    +0.000 HD
ENDBRANCH   4  17
BRANCH   3  19
ATOM     19  O4  UNL     1     -15.582  82.512  46.518  0.00  0.00    +0.000 OA
ATOM     20  H13 UNL     1     -15.283  82.003  47.316  0.00  0.00    +0.000 HD
ENDBRANCH   3  19
BRANCH   2  21
ATOM     21  O5  UNL     1     -17.490  83.161  44.790  0.00  0.00    +0.000 OA
ATOM     22  H14 UNL     1     -16.977  83.788  45.362  0.00  0.00    +0.000 HD
ENDBRANCH   2  21
BRANCH   5  23
ATOM     23  C12 UNL     1     -15.598  78.137  44.884  0.00  0.00    +0.000 C 
BRANCH  23  24
ATOM     24  O2  UNL     1     -15.710  77.378  43.712  0.00  0.00    +0.000 OA
ATOM     25  H11 UNL     1     -16.510  76.802  43.831  0.00  0.00    +0.000 HD
ENDBRANCH  23  24
ENDBRANCH   5  23
TORSDOF 8
ENDMDL
