MODEL 1
REMARK VINA RESULT:      -0.7      0.000      0.000
REMARK  Name = .\Catechins.pdb
REMARK  8 active torsions:
REMARK  status: ('A' for Active; 'I' for Inactive)
REMARK    1  A    between atoms: C3_3  and  O7_19
REMARK    2  A    between atoms: C4_4  and  O6_18
REMARK    3  A    between atoms: C6_6  and  C7_7
REMARK    4  A    between atoms: C8_8  and  O5_17
REMARK    5  A    between atoms: C9_9  and  O4_16
REMARK    6  A    between atoms: C10_10  and  O3_15
REMARK    7  A    between atoms: C11_11  and  C12_13
REMARK    8  A    between atoms: C12_13  and  O2_14
REMARK                            x       y       z     vdW  Elec       q    Type
REMARK                         _______ _______ _______ _____ _____    ______ ____
ROOT
ATOM      1  C7  UNL     1      -1.489  33.289  30.268  0.00  0.00    +0.000 C 
ATOM      2  C8  UNL     1      -1.282  34.823  30.379  0.00  0.00    +0.000 C 
ATOM      3  C9  UNL     1      -1.438  35.306  31.848  0.00  0.00    +0.000 C 
ATOM      4  C10 UNL     1      -2.423  34.402  32.609  0.00  0.00    +0.000 C 
ATOM      5  C11 UNL     1      -1.959  32.906  32.534  0.00  0.00    +0.000 C 
ATOM      6  O1  UNL     1      -1.057  32.659  31.460  0.00  0.00    +0.000 OA
ENDROOT
BRANCH   1  12
ATOM      7  C1  UNL     1       0.690  32.750  29.086  0.00  0.00    +0.000 A 
ATOM      8  C2  UNL     1       1.398  32.270  27.981  0.00  0.00    +0.000 A 
ATOM      9  C3  UNL     1       0.712  31.780  26.861  0.00  0.00    +0.000 A 
ATOM     10  C4  UNL     1      -0.689  31.778  26.849  0.00  0.00    +0.000 A 
ATOM     11  C5  UNL     1      -1.399  32.260  27.959  0.00  0.00    +0.000 A 
ATOM     12  C6  UNL     1      -0.716  32.736  29.091  0.00  0.00    +0.000 A 
BRANCH  10  13
ATOM     13  O6  UNL     1      -1.368  31.298  25.731  0.00  0.00    +0.000 OA
ATOM     14  H15 UNL     1      -2.377  31.216  25.718  0.00  0.00    +0.000 HD
ENDBRANCH  10  13
BRANCH   9  15
ATOM     15  O7  UNL     1       1.414  31.300  25.759  0.00  0.00    +0.000 OA
ATOM     16  H16 UNL     1       2.074  30.534  25.842  0.00  0.00    +0.000 HD
ENDBRANCH   9  15
ENDBRANCH   1  12
BRANCH   4  17
ATOM     17  O3  UNL     1      -2.551  34.837  33.941  0.00  0.00    +0.000 OA
ATOM     18  H12 UNL     1      -1.635  35.010  34.283  0.00  0.00    +0.000 HD
ENDBRANCH   4  17
BRANCH   3  19
ATOM     19  O4  UNL     1      -1.875  36.640  31.892  0.00  0.00    +0.000 OA
ATOM     20  H13 UNL     1      -2.839  36.615  32.126  0.00  0.00    +0.000 HD
ENDBRANCH   3  19
BRANCH   2  21
ATOM     21  O5  UNL     1      -2.159  35.500  29.511  0.00  0.00    +0.000 OA
ATOM     22  H14 UNL     1      -2.950  34.919  29.367  0.00  0.00    +0.000 HD
ENDBRANCH   2  21
BRANCH   5  23
ATOM     23  C12 UNL     1      -1.283  32.432  33.829  0.00  0.00    +0.000 C 
BRANCH  23  24
ATOM     24  O2  UNL     1      -0.123  31.709  33.522  0.00  0.00    +0.000 OA
ATOM     25  H11 UNL     1       0.477  32.340  33.046  0.00  0.00    +0.000 HD
ENDBRANCH  23  24
ENDBRANCH   5  23
TORSDOF 8
ENDMDL
MODEL 2
REMARK VINA RESULT:       1.0      1.618      6.262
REMARK  Name = .\Catechins.pdb
REMARK  8 active torsions:
REMARK  status: ('A' for Active; 'I' for Inactive)
REMARK    1  A    between atoms: C3_3  and  O7_19
REMARK    2  A    between atoms: C4_4  and  O6_18
REMARK    3  A    between atoms: C6_6  and  C7_7
REMARK    4  A    between atoms: C8_8  and  O5_17
REMARK    5  A    between atoms: C9_9  and  O4_16
REMARK    6  A    between atoms: C10_10  and  O3_15
REMARK    7  A    between atoms: C11_11  and  C12_13
REMARK    8  A    between atoms: C12_13  and  O2_14
REMARK                            x       y       z     vdW  Elec       q    Type
REMARK                         _______ _______ _______ _____ _____    ______ ____
ROOT
ATOM      1  C7  UNL     1      -1.136  32.167  29.667  0.00  0.00    +0.000 C 
ATOM      2  C8  UNL     1       0.128  32.913  29.163  0.00  0.00    +0.000 C 
ATOM      3  C9  UNL     1       0.293  32.763  27.626  0.00  0.00    +0.000 C 
ATOM      4  C10 UNL     1      -0.298  31.425  27.149  0.00  0.00    +0.000 C 
ATOM      5  C11 UNL     1      -1.800  31.306  27.589  0.00  0.00    +0.000 C 
ATOM      6  O1  UNL     1      -2.134  32.180  28.663  0.00  0.00    +0.000 OA
ENDROOT
BRANCH   1  12
ATOM      7  C1  UNL     1      -2.246  32.047  31.945  0.00  0.00    +0.000 A 
ATOM      8  C2  UNL     1      -2.769  32.660  33.087  0.00  0.00    +0.000 A 
ATOM      9  C3  UNL     1      -2.733  34.055  33.218  0.00  0.00    +0.000 A 
ATOM     10  C4  UNL     1      -2.177  34.836  32.197  0.00  0.00    +0.000 A 
ATOM     11  C5  UNL     1      -1.653  34.220  31.051  0.00  0.00    +0.000 A 
ATOM     12  C6  UNL     1      -1.670  32.821  30.922  0.00  0.00    +0.000 A 
BRANCH  10  13
ATOM     13  O6  UNL     1      -2.152  36.223  32.328  0.00  0.00    +0.000 OA
ATOM     14  H15 UNL     1      -1.682  36.811  31.648  0.00  0.00    +0.000 HD
ENDBRANCH  10  13
BRANCH   9  15
ATOM     15  O7  UNL     1      -3.252  34.669  34.355  0.00  0.00    +0.000 OA
ATOM     16  H16 UNL     1      -4.062  34.296  34.837  0.00  0.00    +0.000 HD
ENDBRANCH   9  15
ENDBRANCH   1  12
BRANCH   4  17
ATOM     17  O3  UNL     1      -0.157  31.301  25.755  0.00  0.00    +0.000 OA
ATOM     18  H12 UNL     1       0.581  31.906  25.480  0.00  0.00    +0.000 HD
ENDBRANCH   4  17
BRANCH   3  19
ATOM     19  O4  UNL     1       1.645  32.851  27.257  0.00  0.00    +0.000 OA
ATOM     20  H13 UNL     1       1.702  33.547  26.552  0.00  0.00    +0.000 HD
ENDBRANCH   3  19
BRANCH   2  21
ATOM     21  O5  UNL     1       1.269  32.467  29.856  0.00  0.00    +0.000 OA
ATOM     22  H14 UNL     1       2.055  32.616  29.270  0.00  0.00    +0.000 HD
ENDBRANCH   2  21
BRANCH   5  23
ATOM     23  C12 UNL     1      -2.776  31.588  26.437  0.00  0.00    +0.000 C 
BRANCH  23  24
ATOM     24  O2  UNL     1      -2.473  32.824  25.850  0.00  0.00    +0.000 OA
ATOM     25  H11 UNL     1      -1.521  32.773  25.576  0.00  0.00    +0.000 HD
ENDBRANCH  23  24
ENDBRANCH   5  23
TORSDOF 8
ENDMDL
MODEL 3
REMARK VINA RESULT:       1.1      1.586      6.017
REMARK  Name = .\Catechins.pdb
REMARK  8 active torsions:
REMARK  status: ('A' for Active; 'I' for Inactive)
REMARK    1  A    between atoms: C3_3  and  O7_19
REMARK    2  A    between atoms: C4_4  and  O6_18
REMARK    3  A    between atoms: C6_6  and  C7_7
REMARK    4  A    between atoms: C8_8  and  O5_17
REMARK    5  A    between atoms: C9_9  and  O4_16
REMARK    6  A    between atoms: C10_10  and  O3_15
REMARK    7  A    between atoms: C11_11  and  C12_13
REMARK    8  A    between atoms: C12_13  and  O2_14
REMARK                            x       y       z     vdW  Elec       q    Type
REMARK                         _______ _______ _______ _____ _____    ______ ____
ROOT
ATOM      1  C7  UNL     1      -1.446  33.690  28.954  0.00  0.00    +0.000 C 
ATOM      2  C8  UNL     1      -2.602  32.755  28.510  0.00  0.00    +0.000 C 
ATOM      3  C9  UNL     1      -2.108  31.699  27.482  0.00  0.00    +0.000 C 
ATOM      4  C10 UNL     1      -0.943  32.262  26.651  0.00  0.00    +0.000 C 
ATOM      5  C11 UNL     1       0.215  32.744  27.593  0.00  0.00    +0.000 C 
ATOM      6  O1  UNL     1      -0.219  32.982  28.929  0.00  0.00    +0.000 OA
ENDROOT
BRANCH   1  12
ATOM      7  C1  UNL     1      -1.687  35.600  30.605  0.00  0.00    +0.000 A 
ATOM      8  C2  UNL     1      -1.887  36.082  31.901  0.00  0.00    +0.000 A 
ATOM      9  C3  UNL     1      -2.092  35.188  32.961  0.00  0.00    +0.000 A 
ATOM     10  C4  UNL     1      -2.089  33.809  32.719  0.00  0.00    +0.000 A 
ATOM     11  C5  UNL     1      -1.888  33.326  31.418  0.00  0.00    +0.000 A 
ATOM     12  C6  UNL     1      -1.699  34.218  30.348  0.00  0.00    +0.000 A 
BRANCH  10  13
ATOM     13  O6  UNL     1      -2.284  32.923  33.778  0.00  0.00    +0.000 OA
ATOM     14  H15 UNL     1      -2.037  33.171  34.729  0.00  0.00    +0.000 HD
ENDBRANCH  10  13
BRANCH   9  15
ATOM     15  O7  UNL     1      -2.294  35.664  34.255  0.00  0.00    +0.000 OA
ATOM     16  H16 UNL     1      -2.276  35.044  35.057  0.00  0.00    +0.000 HD
ENDBRANCH   9  15
ENDBRANCH   1  12
BRANCH   4  17
ATOM     17  O3  UNL     1      -0.492  31.298  25.731  0.00  0.00    +0.000 OA
ATOM     18  H12 UNL     1      -1.291  30.954  25.252  0.00  0.00    +0.000 HD
ENDBRANCH   4  17
BRANCH   3  19
ATOM     19  O4  UNL     1      -3.154  31.298  26.636  0.00  0.00    +0.000 OA
ATOM     20  H13 UNL     1      -3.931  31.097  27.220  0.00  0.00    +0.000 HD
ENDBRANCH   3  19
BRANCH   2  21
ATOM     21  O5  UNL     1      -3.677  33.511  28.006  0.00  0.00    +0.000 OA
ATOM     22  H14 UNL     1      -3.599  34.429  28.374  0.00  0.00    +0.000 HD
ENDBRANCH   2  21
BRANCH   5  23
ATOM     23  C12 UNL     1       1.382  31.747  27.652  0.00  0.00    +0.000 C 
BRANCH  23  24
ATOM     24  O2  UNL     1       1.557  31.300  28.968  0.00  0.00    +0.000 OA
ATOM     25  H11 UNL     1       2.511  31.035  29.045  0.00  0.00    +0.000 HD
ENDBRANCH  23  24
ENDBRANCH   5  23
TORSDOF 8
ENDMDL
