MODEL 1
REMARK VINA RESULT:      -6.3      0.000      0.000
REMARK  Name = .\Catechins.pdb
REMARK  8 active torsions:
REMARK  status: ('A' for Active; 'I' for Inactive)
REMARK    1  A    between atoms: C3_3  and  O7_19
REMARK    2  A    between atoms: C4_4  and  O6_18
REMARK    3  A    between atoms: C6_6  and  C7_7
REMARK    4  A    between atoms: C8_8  and  O5_17
REMARK    5  A    between atoms: C9_9  and  O4_16
REMARK    6  A    between atoms: C10_10  and  O3_15
REMARK    7  A    between atoms: C11_11  and  C12_13
REMARK    8  A    between atoms: C12_13  and  O2_14
REMARK                            x       y       z     vdW  Elec       q    Type
REMARK                         _______ _______ _______ _____ _____    ______ ____
ROOT
ATOM      1  C7  UNL     1     -10.974  51.423 -12.683  0.00  0.00    +0.000 C 
ATOM      2  C8  UNL     1     -10.758  50.346 -11.586  0.00  0.00    +0.000 C 
ATOM      3  C9  UNL     1     -10.900  48.913 -12.169  0.00  0.00    +0.000 C 
ATOM      4  C10 UNL     1     -11.883  48.909 -13.352  0.00  0.00    +0.000 C 
ATOM      5  C11 UNL     1     -11.427  49.940 -14.443  0.00  0.00    +0.000 C 
ATOM      6  O1  UNL     1     -10.535  50.927 -13.934  0.00  0.00    +0.000 OA
ENDROOT
BRANCH   1  12
ATOM      7  C1  UNL     1      -8.856  52.819 -12.681  0.00  0.00    +0.000 A 
ATOM      8  C2  UNL     1      -8.150  53.973 -12.332  0.00  0.00    +0.000 A 
ATOM      9  C3  UNL     1      -8.787  55.004 -11.628  0.00  0.00    +0.000 A 
ATOM     10  C4  UNL     1     -10.134  54.872 -11.268  0.00  0.00    +0.000 A 
ATOM     11  C5  UNL     1     -10.842  53.714 -11.619  0.00  0.00    +0.000 A 
ATOM     12  C6  UNL     1     -10.214  52.685 -12.341  0.00  0.00    +0.000 A 
BRANCH  10  13
ATOM     13  O6  UNL     1     -10.761  55.896 -10.560  0.00  0.00    +0.000 OA
ATOM     14  H15 UNL     1     -11.348  56.580 -11.024  0.00  0.00    +0.000 HD
ENDBRANCH  10  13
BRANCH   9  15
ATOM     15  O7  UNL     1      -8.086  56.156 -11.279  0.00  0.00    +0.000 OA
ATOM     16  H16 UNL     1      -7.680  56.272 -10.358  0.00  0.00    +0.000 HD
ENDBRANCH   9  15
ENDBRANCH   1  12
BRANCH   4  17
ATOM     17  O3  UNL     1     -11.998  47.611 -13.883  0.00  0.00    +0.000 OA
ATOM     18  H12 UNL     1     -12.656  47.655 -14.625  0.00  0.00    +0.000 HD
ENDBRANCH   4  17
BRANCH   3  19
ATOM     19  O4  UNL     1     -11.329  48.012 -11.182  0.00  0.00    +0.000 OA
ATOM     20  H13 UNL     1     -11.872  48.535 -10.536  0.00  0.00    +0.000 HD
ENDBRANCH   3  19
BRANCH   2  21
ATOM     21  O5  UNL     1     -11.639  50.561 -10.509  0.00  0.00    +0.000 OA
ATOM     22  H14 UNL     1     -11.238  51.255  -9.925  0.00  0.00    +0.000 HD
ENDBRANCH   2  21
BRANCH   5  23
ATOM     23  C12 UNL     1     -10.744  49.266 -15.642  0.00  0.00    +0.000 C 
BRANCH  23  24
ATOM     24  O2  UNL     1      -9.446  48.873 -15.289  0.00  0.00    +0.000 OA
ATOM     25  H11 UNL     1      -9.549  48.171 -14.595  0.00  0.00    +0.000 HD
ENDBRANCH  23  24
ENDBRANCH   5  23
TORSDOF 8
ENDMDL
MODEL 2
REMARK VINA RESULT:      -6.3      4.636      7.305
REMARK  Name = .\Catechins.pdb
REMARK  8 active torsions:
REMARK  status: ('A' for Active; 'I' for Inactive)
REMARK    1  A    between atoms: C3_3  and  O7_19
REMARK    2  A    between atoms: C4_4  and  O6_18
REMARK    3  A    between atoms: C6_6  and  C7_7
REMARK    4  A    between atoms: C8_8  and  O5_17
REMARK    5  A    between atoms: C9_9  and  O4_16
REMARK    6  A    between atoms: C10_10  and  O3_15
REMARK    7  A    between atoms: C11_11  and  C12_13
REMARK    8  A    between atoms: C12_13  and  O2_14
REMARK                            x       y       z     vdW  Elec       q    Type
REMARK                         _______ _______ _______ _____ _____    ______ ____
ROOT
ATOM      1  C7  UNL     1      -6.669  55.468 -11.249  0.00  0.00    +0.000 C 
ATOM      2  C8  UNL     1      -6.249  55.334  -9.761  0.00  0.00    +0.000 C 
ATOM      3  C9  UNL     1      -7.400  55.765  -8.811  0.00  0.00    +0.000 C 
ATOM      4  C10 UNL     1      -8.275  56.840  -9.479  0.00  0.00    +0.000 C 
ATOM      5  C11 UNL     1      -8.818  56.322 -10.856  0.00  0.00    +0.000 C 
ATOM      6  O1  UNL     1      -8.060  55.235 -11.378  0.00  0.00    +0.000 OA
ENDROOT
BRANCH   1  12
ATOM      7  C1  UNL     1      -4.832  54.905 -12.905  0.00  0.00    +0.000 A 
ATOM      8  C2  UNL     1      -4.153  53.994 -13.719  0.00  0.00    +0.000 A 
ATOM      9  C3  UNL     1      -4.546  52.649 -13.753  0.00  0.00    +0.000 A 
ATOM     10  C4  UNL     1      -5.626  52.219 -12.972  0.00  0.00    +0.000 A 
ATOM     11  C5  UNL     1      -6.307  53.134 -12.155  0.00  0.00    +0.000 A 
ATOM     12  C6  UNL     1      -5.906  54.480 -12.104  0.00  0.00    +0.000 A 
BRANCH  10  13
ATOM     13  O6  UNL     1      -6.018  50.883 -13.014  0.00  0.00    +0.000 OA
ATOM     14  H15 UNL     1      -6.846  50.557 -12.528  0.00  0.00    +0.000 HD
ENDBRANCH  10  13
BRANCH   9  15
ATOM     15  O7  UNL     1      -3.871  51.738 -14.562  0.00  0.00    +0.000 OA
ATOM     16  H16 UNL     1      -3.687  51.931 -15.540  0.00  0.00    +0.000 HD
ENDBRANCH   9  15
ENDBRANCH   1  12
BRANCH   4  17
ATOM     17  O3  UNL     1      -9.322  57.218  -8.619  0.00  0.00    +0.000 OA
ATOM     18  H12 UNL     1     -10.088  57.487  -9.190  0.00  0.00    +0.000 HD
ENDBRANCH   4  17
BRANCH   3  19
ATOM     19  O4  UNL     1      -6.891  56.246  -7.594  0.00  0.00    +0.000 OA
ATOM     20  H13 UNL     1      -7.656  56.642  -7.103  0.00  0.00    +0.000 HD
ENDBRANCH   3  19
BRANCH   2  21
ATOM     21  O5  UNL     1      -5.070  56.064  -9.517  0.00  0.00    +0.000 OA
ATOM     22  H14 UNL     1      -4.305  55.439  -9.607  0.00  0.00    +0.000 HD
ENDBRANCH   2  21
BRANCH   5  23
ATOM     23  C12 UNL     1     -10.285  55.873 -10.780  0.00  0.00    +0.000 C 
BRANCH  23  24
ATOM     24  O2  UNL     1     -10.400  54.769  -9.924  0.00  0.00    +0.000 OA
ATOM     25  H11 UNL     1      -9.739  54.913  -9.198  0.00  0.00    +0.000 HD
ENDBRANCH  23  24
ENDBRANCH   5  23
TORSDOF 8
ENDMDL
MODEL 3
REMARK VINA RESULT:      -6.0      1.003      1.723
REMARK  Name = .\Catechins.pdb
REMARK  8 active torsions:
REMARK  status: ('A' for Active; 'I' for Inactive)
REMARK    1  A    between atoms: C3_3  and  O7_19
REMARK    2  A    between atoms: C4_4  and  O6_18
REMARK    3  A    between atoms: C6_6  and  C7_7
REMARK    4  A    between atoms: C8_8  and  O5_17
REMARK    5  A    between atoms: C9_9  and  O4_16
REMARK    6  A    between atoms: C10_10  and  O3_15
REMARK    7  A    between atoms: C11_11  and  C12_13
REMARK    8  A    between atoms: C12_13  and  O2_14
REMARK                            x       y       z     vdW  Elec       q    Type
REMARK                         _______ _______ _______ _____ _____    ______ ____
ROOT
ATOM      1  C7  UNL     1     -10.947  50.879 -13.170  0.00  0.00    +0.000 C 
ATOM      2  C8  UNL     1     -10.700  49.739 -12.147  0.00  0.00    +0.000 C 
ATOM      3  C9  UNL     1     -10.622  48.357 -12.853  0.00  0.00    +0.000 C 
ATOM      4  C10 UNL     1     -11.494  48.351 -14.120  0.00  0.00    +0.000 C 
ATOM      5  C11 UNL     1     -11.073  49.520 -15.077  0.00  0.00    +0.000 C 
ATOM      6  O1  UNL     1     -10.349  50.549 -14.410  0.00  0.00    +0.000 OA
ENDROOT
BRANCH   1  12
ATOM      7  C1  UNL     1     -11.191  53.117 -12.000  0.00  0.00    +0.000 A 
ATOM      8  C2  UNL     1     -10.662  54.333 -11.560  0.00  0.00    +0.000 A 
ATOM      9  C3  UNL     1      -9.312  54.637 -11.782  0.00  0.00    +0.000 A 
ATOM     10  C4  UNL     1      -8.493  53.720 -12.452  0.00  0.00    +0.000 A 
ATOM     11  C5  UNL     1      -9.024  52.499 -12.893  0.00  0.00    +0.000 A 
ATOM     12  C6  UNL     1     -10.373  52.181 -12.658  0.00  0.00    +0.000 A 
BRANCH  10  13
ATOM     13  O6  UNL     1      -7.153  54.029 -12.678  0.00  0.00    +0.000 OA
ATOM     14  H15 UNL     1      -6.644  54.658 -12.068  0.00  0.00    +0.000 HD
ENDBRANCH  10  13
BRANCH   9  15
ATOM     15  O7  UNL     1      -8.781  55.848 -11.344  0.00  0.00    +0.000 OA
ATOM     16  H16 UNL     1      -9.118  56.735 -11.701  0.00  0.00    +0.000 HD
ENDBRANCH   9  15
ENDBRANCH   1  12
BRANCH   4  17
ATOM     17  O3  UNL     1     -11.410  47.101 -14.761  0.00  0.00    +0.000 OA
ATOM     18  H12 UNL     1     -12.134  47.072 -15.440  0.00  0.00    +0.000 HD
ENDBRANCH   4  17
BRANCH   3  19
ATOM     19  O4  UNL     1     -11.024  47.329 -11.985  0.00  0.00    +0.000 OA
ATOM     20  H13 UNL     1     -10.555  47.484 -11.125  0.00  0.00    +0.000 HD
ENDBRANCH   3  19
BRANCH   2  21
ATOM     21  O5  UNL     1     -11.687  49.757 -11.144  0.00  0.00    +0.000 OA
ATOM     22  H14 UNL     1     -11.245  49.997 -10.289  0.00  0.00    +0.000 HD
ENDBRANCH   2  21
BRANCH   5  23
ATOM     23  C12 UNL     1     -10.216  49.036 -16.257  0.00  0.00    +0.000 C 
BRANCH  23  24
ATOM     24  O2  UNL     1      -8.895  48.839 -15.834  0.00  0.00    +0.000 OA
ATOM     25  H11 UNL     1      -8.337  48.852 -16.655  0.00  0.00    +0.000 HD
ENDBRANCH  23  24
ENDBRANCH   5  23
TORSDOF 8
ENDMDL
MODEL 4
REMARK VINA RESULT:      -5.9      2.916      4.710
REMARK  Name = .\Catechins.pdb
REMARK  8 active torsions:
REMARK  status: ('A' for Active; 'I' for Inactive)
REMARK    1  A    between atoms: C3_3  and  O7_19
REMARK    2  A    between atoms: C4_4  and  O6_18
REMARK    3  A    between atoms: C6_6  and  C7_7
REMARK    4  A    between atoms: C8_8  and  O5_17
REMARK    5  A    between atoms: C9_9  and  O4_16
REMARK    6  A    between atoms: C10_10  and  O3_15
REMARK    7  A    between atoms: C11_11  and  C12_13
REMARK    8  A    between atoms: C12_13  and  O2_14
REMARK                            x       y       z     vdW  Elec       q    Type
REMARK                         _______ _______ _______ _____ _____    ______ ____
ROOT
ATOM      1  C7  UNL     1      -9.252  49.743 -13.671  0.00  0.00    +0.000 C 
ATOM      2  C8  UNL     1     -10.243  50.449 -14.634  0.00  0.00    +0.000 C 
ATOM      3  C9  UNL     1     -11.709  50.303 -14.138  0.00  0.00    +0.000 C 
ATOM      4  C10 UNL     1     -11.884  48.989 -13.358  0.00  0.00    +0.000 C 
ATOM      5  C11 UNL     1     -10.858  48.918 -12.173  0.00  0.00    +0.000 C 
ATOM      6  O1  UNL     1      -9.750  49.796 -12.347  0.00  0.00    +0.000 OA
ENDROOT
BRANCH   1  12
ATOM      7  C1  UNL     1      -7.670  51.639 -13.092  0.00  0.00    +0.000 A 
ATOM      8  C2  UNL     1      -6.423  52.265 -13.179  0.00  0.00    +0.000 A 
ATOM      9  C3  UNL     1      -5.388  51.675 -13.917  0.00  0.00    +0.000 A 
ATOM     10  C4  UNL     1      -5.607  50.458 -14.573  0.00  0.00    +0.000 A 
ATOM     11  C5  UNL     1      -6.858  49.830 -14.485  0.00  0.00    +0.000 A 
ATOM     12  C6  UNL     1      -7.895  50.408 -13.732  0.00  0.00    +0.000 A 
BRANCH  10  13
ATOM     13  O6  UNL     1      -4.578  49.878 -15.313  0.00  0.00    +0.000 OA
ATOM     14  H15 UNL     1      -4.533  49.971 -16.321  0.00  0.00    +0.000 HD
ENDBRANCH  10  13
BRANCH   9  15
ATOM     15  O7  UNL     1      -4.144  52.296 -14.007  0.00  0.00    +0.000 OA
ATOM     16  H16 UNL     1      -4.052  53.261 -14.303  0.00  0.00    +0.000 HD
ENDBRANCH   9  15
ENDBRANCH   1  12
BRANCH   4  17
ATOM     17  O3  UNL     1     -13.210  48.868 -12.901  0.00  0.00    +0.000 OA
ATOM     18  H12 UNL     1     -13.783  48.730 -13.700  0.00  0.00    +0.000 HD
ENDBRANCH   4  17
BRANCH   3  19
ATOM     19  O4  UNL     1     -12.608  50.348 -15.216  0.00  0.00    +0.000 OA
ATOM     20  H13 UNL     1     -12.931  49.420 -15.355  0.00  0.00    +0.000 HD
ENDBRANCH   3  19
BRANCH   2  21
ATOM     21  O5  UNL     1     -10.085  49.960 -15.945  0.00  0.00    +0.000 OA
ATOM     22  H14 UNL     1     -10.797  50.364 -16.505  0.00  0.00    +0.000 HD
ENDBRANCH   2  21
BRANCH   5  23
ATOM     23  C12 UNL     1     -11.501  49.240 -10.816  0.00  0.00    +0.000 C 
BRANCH  23  24
ATOM     24  O2  UNL     1     -11.590  50.629 -10.651  0.00  0.00    +0.000 OA
ATOM     25  H11 UNL     1     -10.980  50.858  -9.902  0.00  0.00    +0.000 HD
ENDBRANCH  23  24
ENDBRANCH   5  23
TORSDOF 8
ENDMDL
MODEL 5
REMARK VINA RESULT:      -5.9      2.194      6.170
REMARK  Name = .\Catechins.pdb
REMARK  8 active torsions:
REMARK  status: ('A' for Active; 'I' for Inactive)
REMARK    1  A    between atoms: C3_3  and  O7_19
REMARK    2  A    between atoms: C4_4  and  O6_18
REMARK    3  A    between atoms: C6_6  and  C7_7
REMARK    4  A    between atoms: C8_8  and  O5_17
REMARK    5  A    between atoms: C9_9  and  O4_16
REMARK    6  A    between atoms: C10_10  and  O3_15
REMARK    7  A    between atoms: C11_11  and  C12_13
REMARK    8  A    between atoms: C12_13  and  O2_14
REMARK                            x       y       z     vdW  Elec       q    Type
REMARK                         _______ _______ _______ _____ _____    ______ ____
ROOT
ATOM      1  C7  UNL     1     -10.625  50.874 -13.166  0.00  0.00    +0.000 C 
ATOM      2  C8  UNL     1     -11.040  52.307 -13.592  0.00  0.00    +0.000 C 
ATOM      3  C9  UNL     1      -9.804  53.243 -13.699  0.00  0.00    +0.000 C 
ATOM      4  C10 UNL     1      -8.711  52.804 -12.711  0.00  0.00    +0.000 C 
ATOM      5  C11 UNL     1      -8.328  51.302 -12.953  0.00  0.00    +0.000 C 
ATOM      6  O1  UNL     1      -9.331  50.582 -13.663  0.00  0.00    +0.000 OA
ENDROOT
BRANCH   1  12
ATOM      7  C1  UNL     1     -12.069  49.924 -15.022  0.00  0.00    +0.000 A 
ATOM      8  C2  UNL     1     -13.009  49.004 -15.494  0.00  0.00    +0.000 A 
ATOM      9  C3  UNL     1     -13.516  48.014 -14.642  0.00  0.00    +0.000 A 
ATOM     10  C4  UNL     1     -13.083  47.951 -13.311  0.00  0.00    +0.000 A 
ATOM     11  C5  UNL     1     -12.139  48.875 -12.839  0.00  0.00    +0.000 A 
ATOM     12  C6  UNL     1     -11.614  49.859 -13.693  0.00  0.00    +0.000 A 
BRANCH  10  13
ATOM     13  O6  UNL     1     -13.596  46.970 -12.465  0.00  0.00    +0.000 OA
ATOM     14  H15 UNL     1     -13.421  46.987 -11.467  0.00  0.00    +0.000 HD
ENDBRANCH  10  13
BRANCH   9  15
ATOM     15  O7  UNL     1     -14.453  47.094 -15.109  0.00  0.00    +0.000 OA
ATOM     16  H16 UNL     1     -15.431  47.154 -14.850  0.00  0.00    +0.000 HD
ENDBRANCH   9  15
ENDBRANCH   1  12
BRANCH   4  17
ATOM     17  O3  UNL     1      -7.590  53.647 -12.820  0.00  0.00    +0.000 OA
ATOM     18  H12 UNL     1      -7.329  53.909 -11.899  0.00  0.00    +0.000 HD
ENDBRANCH   4  17
BRANCH   3  19
ATOM     19  O4  UNL     1     -10.165  54.578 -13.458  0.00  0.00    +0.000 OA
ATOM     20  H13 UNL     1      -9.715  54.846 -12.615  0.00  0.00    +0.000 HD
ENDBRANCH   3  19
BRANCH   2  21
ATOM     21  O5  UNL     1     -12.008  52.821 -12.708  0.00  0.00    +0.000 OA
ATOM     22  H14 UNL     1     -12.690  52.115 -12.565  0.00  0.00    +0.000 HD
ENDBRANCH   2  21
BRANCH   5  23
ATOM     23  C12 UNL     1      -7.009  51.146 -13.723  0.00  0.00    +0.000 C 
BRANCH  23  24
ATOM     24  O2  UNL     1      -5.942  51.038 -12.821  0.00  0.00    +0.000 OA
ATOM     25  H11 UNL     1      -5.846  51.930 -12.398  0.00  0.00    +0.000 HD
ENDBRANCH  23  24
ENDBRANCH   5  23
TORSDOF 8
ENDMDL
MODEL 6
REMARK VINA RESULT:      -5.7      1.532      6.377
REMARK  Name = .\Catechins.pdb
REMARK  8 active torsions:
REMARK  status: ('A' for Active; 'I' for Inactive)
REMARK    1  A    between atoms: C3_3  and  O7_19
REMARK    2  A    between atoms: C4_4  and  O6_18
REMARK    3  A    between atoms: C6_6  and  C7_7
REMARK    4  A    between atoms: C8_8  and  O5_17
REMARK    5  A    between atoms: C9_9  and  O4_16
REMARK    6  A    between atoms: C10_10  and  O3_15
REMARK    7  A    between atoms: C11_11  and  C12_13
REMARK    8  A    between atoms: C12_13  and  O2_14
REMARK                            x       y       z     vdW  Elec       q    Type
REMARK                         _______ _______ _______ _____ _____    ______ ____
ROOT
ATOM      1  C7  UNL     1     -10.446  51.817 -13.353  0.00  0.00    +0.000 C 
ATOM      2  C8  UNL     1      -8.917  51.573 -13.264  0.00  0.00    +0.000 C 
ATOM      3  C9  UNL     1      -8.210  52.715 -12.483  0.00  0.00    +0.000 C 
ATOM      4  C10 UNL     1      -8.972  54.039 -12.659  0.00  0.00    +0.000 C 
ATOM      5  C11 UNL     1     -10.468  53.870 -12.218  0.00  0.00    +0.000 C 
ATOM      6  O1  UNL     1     -10.890  52.509 -12.200  0.00  0.00    +0.000 OA
ENDROOT
BRANCH   1  12
ATOM      7  C1  UNL     1     -12.327  50.392 -14.283  0.00  0.00    +0.000 A 
ATOM      8  C2  UNL     1     -13.025  49.184 -14.362  0.00  0.00    +0.000 A 
ATOM      9  C3  UNL     1     -12.599  48.073 -13.622  0.00  0.00    +0.000 A 
ATOM     10  C4  UNL     1     -11.472  48.177 -12.796  0.00  0.00    +0.000 A 
ATOM     11  C5  UNL     1     -10.772  49.390 -12.718  0.00  0.00    +0.000 A 
ATOM     12  C6  UNL     1     -11.185  50.502 -13.471  0.00  0.00    +0.000 A 
BRANCH  10  13
ATOM     13  O6  UNL     1     -11.056  47.072 -12.055  0.00  0.00    +0.000 OA
ATOM     14  H15 UNL     1     -11.130  46.130 -12.421  0.00  0.00    +0.000 HD
ENDBRANCH  10  13
BRANCH   9  15
ATOM     15  O7  UNL     1     -13.291  46.867 -13.698  0.00  0.00    +0.000 OA
ATOM     16  H16 UNL     1     -12.831  45.979 -13.533  0.00  0.00    +0.000 HD
ENDBRANCH   9  15
ENDBRANCH   1  12
BRANCH   4  17
ATOM     17  O3  UNL     1      -8.334  55.067 -11.940  0.00  0.00    +0.000 OA
ATOM     18  H12 UNL     1      -8.020  55.736 -12.602  0.00  0.00    +0.000 HD
ENDBRANCH   4  17
BRANCH   3  19
ATOM     19  O4  UNL     1      -6.880  52.864 -12.909  0.00  0.00    +0.000 OA
ATOM     20  H13 UNL     1      -6.521  53.664 -12.445  0.00  0.00    +0.000 HD
ENDBRANCH   3  19
BRANCH   2  21
ATOM     21  O5  UNL     1      -8.372  51.407 -14.552  0.00  0.00    +0.000 OA
ATOM     22  H14 UNL     1      -7.470  51.008 -14.448  0.00  0.00    +0.000 HD
ENDBRANCH   2  21
BRANCH   5  23
ATOM     23  C12 UNL     1     -10.743  54.462 -10.827  0.00  0.00    +0.000 C 
BRANCH  23  24
ATOM     24  O2  UNL     1     -10.838  55.857 -10.917  0.00  0.00    +0.000 OA
ATOM     25  H11 UNL     1      -9.908  56.201 -10.867  0.00  0.00    +0.000 HD
ENDBRANCH  23  24
ENDBRANCH   5  23
TORSDOF 8
ENDMDL
MODEL 7
REMARK VINA RESULT:      -5.7      2.551      6.139
REMARK  Name = .\Catechins.pdb
REMARK  8 active torsions:
REMARK  status: ('A' for Active; 'I' for Inactive)
REMARK    1  A    between atoms: C3_3  and  O7_19
REMARK    2  A    between atoms: C4_4  and  O6_18
REMARK    3  A    between atoms: C6_6  and  C7_7
REMARK    4  A    between atoms: C8_8  and  O5_17
REMARK    5  A    between atoms: C9_9  and  O4_16
REMARK    6  A    between atoms: C10_10  and  O3_15
REMARK    7  A    between atoms: C11_11  and  C12_13
REMARK    8  A    between atoms: C12_13  and  O2_14
REMARK                            x       y       z     vdW  Elec       q    Type
REMARK                         _______ _______ _______ _____ _____    ______ ____
ROOT
ATOM      1  C7  UNL     1      -8.786  50.757 -14.175  0.00  0.00    +0.000 C 
ATOM      2  C8  UNL     1      -7.515  49.869 -14.217  0.00  0.00    +0.000 C 
ATOM      3  C9  UNL     1      -6.233  50.710 -13.967  0.00  0.00    +0.000 C 
ATOM      4  C10 UNL     1      -6.427  52.150 -14.473  0.00  0.00    +0.000 C 
ATOM      5  C11 UNL     1      -7.690  52.797 -13.802  0.00  0.00    +0.000 C 
ATOM      6  O1  UNL     1      -8.592  51.830 -13.272  0.00  0.00    +0.000 OA
ENDROOT
BRANCH   1  12
ATOM      7  C1  UNL     1     -11.003  49.623 -14.662  0.00  0.00    +0.000 A 
ATOM      8  C2  UNL     1     -12.125  48.899 -14.251  0.00  0.00    +0.000 A 
ATOM      9  C3  UNL     1     -12.252  48.493 -12.916  0.00  0.00    +0.000 A 
ATOM     10  C4  UNL     1     -11.253  48.820 -11.991  0.00  0.00    +0.000 A 
ATOM     11  C5  UNL     1     -10.127  49.547 -12.404  0.00  0.00    +0.000 A 
ATOM     12  C6  UNL     1      -9.985  49.941 -13.745  0.00  0.00    +0.000 A 
BRANCH  10  13
ATOM     13  O6  UNL     1     -11.388  48.422 -10.662  0.00  0.00    +0.000 OA
ATOM     14  H15 UNL     1     -12.051  48.869 -10.039  0.00  0.00    +0.000 HD
ENDBRANCH  10  13
BRANCH   9  15
ATOM     15  O7  UNL     1     -13.369  47.770 -12.503  0.00  0.00    +0.000 OA
ATOM     16  H16 UNL     1     -14.027  48.148 -11.831  0.00  0.00    +0.000 HD
ENDBRANCH   9  15
ENDBRANCH   1  12
BRANCH   4  17
ATOM     17  O3  UNL     1      -5.268  52.910 -14.233  0.00  0.00    +0.000 OA
ATOM     18  H12 UNL     1      -4.687  52.376 -13.631  0.00  0.00    +0.000 HD
ENDBRANCH   4  17
BRANCH   3  19
ATOM     19  O4  UNL     1      -5.120  50.126 -14.594  0.00  0.00    +0.000 OA
ATOM     20  H13 UNL     1      -5.378  49.194 -14.818  0.00  0.00    +0.000 HD
ENDBRANCH   3  19
BRANCH   2  21
ATOM     21  O5  UNL     1      -7.448  49.166 -15.435  0.00  0.00    +0.000 OA
ATOM     22  H14 UNL     1      -6.694  49.542 -15.959  0.00  0.00    +0.000 HD
ENDBRANCH   2  21
BRANCH   5  23
ATOM     23  C12 UNL     1      -7.324  53.765 -12.668  0.00  0.00    +0.000 C 
BRANCH  23  24
ATOM     24  O2  UNL     1      -6.759  53.054 -11.600  0.00  0.00    +0.000 OA
ATOM     25  H11 UNL     1      -5.781  53.034 -11.768  0.00  0.00    +0.000 HD
ENDBRANCH  23  24
ENDBRANCH   5  23
TORSDOF 8
ENDMDL
MODEL 8
REMARK VINA RESULT:      -5.7      1.365      1.561
REMARK  Name = .\Catechins.pdb
REMARK  8 active torsions:
REMARK  status: ('A' for Active; 'I' for Inactive)
REMARK    1  A    between atoms: C3_3  and  O7_19
REMARK    2  A    between atoms: C4_4  and  O6_18
REMARK    3  A    between atoms: C6_6  and  C7_7
REMARK    4  A    between atoms: C8_8  and  O5_17
REMARK    5  A    between atoms: C9_9  and  O4_16
REMARK    6  A    between atoms: C10_10  and  O3_15
REMARK    7  A    between atoms: C11_11  and  C12_13
REMARK    8  A    between atoms: C12_13  and  O2_14
REMARK                            x       y       z     vdW  Elec       q    Type
REMARK                         _______ _______ _______ _____ _____    ______ ____
ROOT
ATOM      1  C7  UNL     1     -11.415  50.324 -13.037  0.00  0.00    +0.000 C 
ATOM      2  C8  UNL     1     -10.733  49.075 -12.419  0.00  0.00    +0.000 C 
ATOM      3  C9  UNL     1     -11.152  47.778 -13.165  0.00  0.00    +0.000 C 
ATOM      4  C10 UNL     1     -12.572  47.923 -13.739  0.00  0.00    +0.000 C 
ATOM      5  C11 UNL     1     -12.658  49.184 -14.668  0.00  0.00    +0.000 C 
ATOM      6  O1  UNL     1     -11.615  50.124 -14.425  0.00  0.00    +0.000 OA
ENDROOT
BRANCH   1  12
ATOM      7  C1  UNL     1      -9.388  51.754 -13.564  0.00  0.00    +0.000 A 
ATOM      8  C2  UNL     1      -8.585  52.875 -13.334  0.00  0.00    +0.000 A 
ATOM      9  C3  UNL     1      -8.940  53.805 -12.348  0.00  0.00    +0.000 A 
ATOM     10  C4  UNL     1     -10.099  53.606 -11.587  0.00  0.00    +0.000 A 
ATOM     11  C5  UNL     1     -10.904  52.481 -11.819  0.00  0.00    +0.000 A 
ATOM     12  C6  UNL     1     -10.563  51.554 -12.819  0.00  0.00    +0.000 A 
BRANCH  10  13
ATOM     13  O6  UNL     1     -10.444  54.529 -10.601  0.00  0.00    +0.000 OA
ATOM     14  H15 UNL     1      -9.791  54.796  -9.874  0.00  0.00    +0.000 HD
ENDBRANCH  10  13
BRANCH   9  15
ATOM     15  O7  UNL     1      -8.144  54.924 -12.116  0.00  0.00    +0.000 OA
ATOM     16  H16 UNL     1      -7.483  54.956 -11.348  0.00  0.00    +0.000 HD
ENDBRANCH   9  15
ENDBRANCH   1  12
BRANCH   4  17
ATOM     17  O3  UNL     1     -12.942  46.750 -14.423  0.00  0.00    +0.000 OA
ATOM     18  H12 UNL     1     -12.385  46.702 -15.243  0.00  0.00    +0.000 HD
ENDBRANCH   4  17
BRANCH   3  19
ATOM     19  O4  UNL     1     -11.089  46.667 -12.309  0.00  0.00    +0.000 OA
ATOM     20  H13 UNL     1     -11.766  46.816 -11.599  0.00  0.00    +0.000 HD
ENDBRANCH   3  19
BRANCH   2  21
ATOM     21  O5  UNL     1     -11.010  48.997 -11.041  0.00  0.00    +0.000 OA
ATOM     22  H14 UNL     1     -10.249  49.410 -10.557  0.00  0.00    +0.000 HD
ENDBRANCH   2  21
BRANCH   5  23
ATOM     23  C12 UNL     1     -12.619  48.820 -16.160  0.00  0.00    +0.000 C 
BRANCH  23  24
ATOM     24  O2  UNL     1     -11.474  49.369 -16.753  0.00  0.00    +0.000 OA
ATOM     25  H11 UNL     1     -11.763  50.217 -17.179  0.00  0.00    +0.000 HD
ENDBRANCH  23  24
ENDBRANCH   5  23
TORSDOF 8
ENDMDL
MODEL 9
REMARK VINA RESULT:      -5.6      1.824      5.895
REMARK  Name = .\Catechins.pdb
REMARK  8 active torsions:
REMARK  status: ('A' for Active; 'I' for Inactive)
REMARK    1  A    between atoms: C3_3  and  O7_19
REMARK    2  A    between atoms: C4_4  and  O6_18
REMARK    3  A    between atoms: C6_6  and  C7_7
REMARK    4  A    between atoms: C8_8  and  O5_17
REMARK    5  A    between atoms: C9_9  and  O4_16
REMARK    6  A    between atoms: C10_10  and  O3_15
REMARK    7  A    between atoms: C11_11  and  C12_13
REMARK    8  A    between atoms: C12_13  and  O2_14
REMARK                            x       y       z     vdW  Elec       q    Type
REMARK                         _______ _______ _______ _____ _____    ______ ____
ROOT
ATOM      1  C7  UNL     1      -9.895  51.619 -12.153  0.00  0.00    +0.000 C 
ATOM      2  C8  UNL     1     -10.611  52.989 -12.287  0.00  0.00    +0.000 C 
ATOM      3  C9  UNL     1      -9.638  54.085 -12.802  0.00  0.00    +0.000 C 
ATOM      4  C10 UNL     1      -8.199  53.783 -12.349  0.00  0.00    +0.000 C 
ATOM      5  C11 UNL     1      -7.768  52.351 -12.822  0.00  0.00    +0.000 C 
ATOM      6  O1  UNL     1      -8.877  51.513 -13.133  0.00  0.00    +0.000 OA
ENDROOT
BRANCH   1  12
ATOM      7  C1  UNL     1     -11.170  49.621 -11.253  0.00  0.00    +0.000 A 
ATOM      8  C2  UNL     1     -12.059  48.555 -11.424  0.00  0.00    +0.000 A 
ATOM      9  C3  UNL     1     -12.664  48.335 -12.669  0.00  0.00    +0.000 A 
ATOM     10  C4  UNL     1     -12.372  49.182 -13.745  0.00  0.00    +0.000 A 
ATOM     11  C5  UNL     1     -11.480  50.251 -13.572  0.00  0.00    +0.000 A 
ATOM     12  C6  UNL     1     -10.884  50.488 -12.322  0.00  0.00    +0.000 A 
BRANCH  10  13
ATOM     13  O6  UNL     1     -12.969  48.955 -14.983  0.00  0.00    +0.000 OA
ATOM     14  H15 UNL     1     -12.834  49.589 -15.762  0.00  0.00    +0.000 HD
ENDBRANCH  10  13
BRANCH   9  15
ATOM     15  O7  UNL     1     -13.551  47.275 -12.843  0.00  0.00    +0.000 OA
ATOM     16  H16 UNL     1     -13.537  46.465 -12.234  0.00  0.00    +0.000 HD
ENDBRANCH   9  15
ENDBRANCH   1  12
BRANCH   4  17
ATOM     17  O3  UNL     1      -7.321  54.772 -12.829  0.00  0.00    +0.000 OA
ATOM     18  H12 UNL     1      -6.627  54.910 -12.133  0.00  0.00    +0.000 HD
ENDBRANCH   4  17
BRANCH   3  19
ATOM     19  O4  UNL     1     -10.030  55.355 -12.349  0.00  0.00    +0.000 OA
ATOM     20  H13 UNL     1     -10.497  55.217 -11.485  0.00  0.00    +0.000 HD
ENDBRANCH   3  19
BRANCH   2  21
ATOM     21  O5  UNL     1     -11.205  53.353 -11.062  0.00  0.00    +0.000 OA
ATOM     22  H14 UNL     1     -10.998  52.640 -10.404  0.00  0.00    +0.000 HD
ENDBRANCH   2  21
BRANCH   5  23
ATOM     23  C12 UNL     1      -6.852  52.388 -14.055  0.00  0.00    +0.000 C 
BRANCH  23  24
ATOM     24  O2  UNL     1      -7.571  52.844 -15.167  0.00  0.00    +0.000 OA
ATOM     25  H11 UNL     1      -7.453  52.157 -15.873  0.00  0.00    +0.000 HD
ENDBRANCH  23  24
ENDBRANCH   5  23
TORSDOF 8
ENDMDL
