MODEL 1
REMARK VINA RESULT:      -4.5      0.000      0.000
REMARK  Name = .\Catechins.pdb
REMARK  8 active torsions:
REMARK  status: ('A' for Active; 'I' for Inactive)
REMARK    1  A    between atoms: C3_3  and  O7_19
REMARK    2  A    between atoms: C4_4  and  O6_18
REMARK    3  A    between atoms: C6_6  and  C7_7
REMARK    4  A    between atoms: C8_8  and  O5_17
REMARK    5  A    between atoms: C9_9  and  O4_16
REMARK    6  A    between atoms: C10_10  and  O3_15
REMARK    7  A    between atoms: C11_11  and  C12_13
REMARK    8  A    between atoms: C12_13  and  O2_14
REMARK                            x       y       z     vdW  Elec       q    Type
REMARK                         _______ _______ _______ _____ _____    ______ ____
ROOT
ATOM      1  C7  UNL     1      -1.495  85.563  61.899  0.00  0.00    +0.000 C 
ATOM      2  C8  UNL     1      -0.948  86.462  63.038  0.00  0.00    +0.000 C 
ATOM      3  C9  UNL     1       0.555  86.792  62.824  0.00  0.00    +0.000 C 
ATOM      4  C10 UNL     1       1.254  85.646  62.073  0.00  0.00    +0.000 C 
ATOM      5  C11 UNL     1       0.521  85.355  60.717  0.00  0.00    +0.000 C 
ATOM      6  O1  UNL     1      -0.814  85.851  60.691  0.00  0.00    +0.000 OA
ENDROOT
BRANCH   1  12
ATOM      7  C1  UNL     1      -3.822  84.733  61.324  0.00  0.00    +0.000 A 
ATOM      8  C2  UNL     1      -5.186  84.955  61.120  0.00  0.00    +0.000 A 
ATOM      9  C3  UNL     1      -5.725  86.238  61.290  0.00  0.00    +0.000 A 
ATOM     10  C4  UNL     1      -4.890  87.300  61.659  0.00  0.00    +0.000 A 
ATOM     11  C5  UNL     1      -3.521  87.076  61.864  0.00  0.00    +0.000 A 
ATOM     12  C6  UNL     1      -2.979  85.789  61.713  0.00  0.00    +0.000 A 
BRANCH  10  13
ATOM     13  O6  UNL     1      -5.429  88.576  61.818  0.00  0.00    +0.000 OA
ATOM     14  H15 UNL     1      -4.851  89.407  61.754  0.00  0.00    +0.000 HD
ENDBRANCH  10  13
BRANCH   9  15
ATOM     15  O7  UNL     1      -7.085  86.464  61.088  0.00  0.00    +0.000 OA
ATOM     16  H16 UNL     1      -7.681  85.765  60.660  0.00  0.00    +0.000 HD
ENDBRANCH   9  15
ENDBRANCH   1  12
BRANCH   4  17
ATOM     17  O3  UNL     1       2.612  85.954  61.871  0.00  0.00    +0.000 OA
ATOM     18  H12 UNL     1       3.138  85.164  62.161  0.00  0.00    +0.000 HD
ENDBRANCH   4  17
BRANCH   3  19
ATOM     19  O4  UNL     1       1.196  87.027  64.051  0.00  0.00    +0.000 OA
ATOM     20  H13 UNL     1       1.138  86.182  64.568  0.00  0.00    +0.000 HD
ENDBRANCH   3  19
BRANCH   2  21
ATOM     21  O5  UNL     1      -1.177  85.860  64.291  0.00  0.00    +0.000 OA
ATOM     22  H14 UNL     1      -0.737  86.422  64.980  0.00  0.00    +0.000 HD
ENDBRANCH   2  21
BRANCH   5  23
ATOM     23  C12 UNL     1       1.262  85.945  59.508  0.00  0.00    +0.000 C 
BRANCH  23  24
ATOM     24  O2  UNL     1       0.577  87.072  59.036  0.00  0.00    +0.000 OA
ATOM     25  H11 UNL     1       1.200  87.535  58.417  0.00  0.00    +0.000 HD
ENDBRANCH  23  24
ENDBRANCH   5  23
TORSDOF 8
ENDMDL
MODEL 2
REMARK VINA RESULT:      -4.4      1.354      2.798
REMARK  Name = .\Catechins.pdb
REMARK  8 active torsions:
REMARK  status: ('A' for Active; 'I' for Inactive)
REMARK    1  A    between atoms: C3_3  and  O7_19
REMARK    2  A    between atoms: C4_4  and  O6_18
REMARK    3  A    between atoms: C6_6  and  C7_7
REMARK    4  A    between atoms: C8_8  and  O5_17
REMARK    5  A    between atoms: C9_9  and  O4_16
REMARK    6  A    between atoms: C10_10  and  O3_15
REMARK    7  A    between atoms: C11_11  and  C12_13
REMARK    8  A    between atoms: C12_13  and  O2_14
REMARK                            x       y       z     vdW  Elec       q    Type
REMARK                         _______ _______ _______ _____ _____    ______ ____
ROOT
ATOM      1  C7  UNL     1      -0.391  86.719  61.619  0.00  0.00    +0.000 C 
ATOM      2  C8  UNL     1       0.282  86.418  60.255  0.00  0.00    +0.000 C 
ATOM      3  C9  UNL     1       1.783  86.060  60.435  0.00  0.00    +0.000 C 
ATOM      4  C10 UNL     1       2.363  86.778  61.665  0.00  0.00    +0.000 C 
ATOM      5  C11 UNL     1       1.523  86.433  62.944  0.00  0.00    +0.000 C 
ATOM      6  O1  UNL     1       0.220  85.947  62.637  0.00  0.00    +0.000 OA
ENDROOT
BRANCH   1  12
ATOM      7  C1  UNL     1      -2.314  85.124  61.181  0.00  0.00    +0.000 A 
ATOM      8  C2  UNL     1      -3.681  84.847  61.094  0.00  0.00    +0.000 A 
ATOM      9  C3  UNL     1      -4.623  85.847  61.374  0.00  0.00    +0.000 A 
ATOM     10  C4  UNL     1      -4.189  87.129  61.736  0.00  0.00    +0.000 A 
ATOM     11  C5  UNL     1      -2.817  87.406  61.823  0.00  0.00    +0.000 A 
ATOM     12  C6  UNL     1      -1.869  86.402  61.560  0.00  0.00    +0.000 A 
BRANCH  10  13
ATOM     13  O6  UNL     1      -5.129  88.123  62.005  0.00  0.00    +0.000 OA
ATOM     14  H15 UNL     1      -5.503  88.712  61.271  0.00  0.00    +0.000 HD
ENDBRANCH  10  13
BRANCH   9  15
ATOM     15  O7  UNL     1      -5.986  85.575  61.290  0.00  0.00    +0.000 OA
ATOM     16  H16 UNL     1      -6.376  84.704  61.632  0.00  0.00    +0.000 HD
ENDBRANCH   9  15
ENDBRANCH   1  12
BRANCH   4  17
ATOM     17  O3  UNL     1       3.719  86.441  61.830  0.00  0.00    +0.000 OA
ATOM     18  H12 UNL     1       3.978  85.880  61.054  0.00  0.00    +0.000 HD
ENDBRANCH   4  17
BRANCH   3  19
ATOM     19  O4  UNL     1       2.519  86.397  59.288  0.00  0.00    +0.000 OA
ATOM     20  H13 UNL     1       3.390  86.753  59.603  0.00  0.00    +0.000 HD
ENDBRANCH   3  19
BRANCH   2  21
ATOM     21  O5  UNL     1       0.106  87.501  59.372  0.00  0.00    +0.000 OA
ATOM     22  H14 UNL     1      -0.608  87.253  58.730  0.00  0.00    +0.000 HD
ENDBRANCH   2  21
BRANCH   5  23
ATOM     23  C12 UNL     1       2.212  85.390  63.838  0.00  0.00    +0.000 C 
BRANCH  23  24
ATOM     24  O2  UNL     1       2.324  84.175  63.149  0.00  0.00    +0.000 OA
ATOM     25  H11 UNL     1       1.755  83.526  63.641  0.00  0.00    +0.000 HD
ENDBRANCH  23  24
ENDBRANCH   5  23
TORSDOF 8
ENDMDL
MODEL 3
REMARK VINA RESULT:      -4.2      2.062      6.070
REMARK  Name = .\Catechins.pdb
REMARK  8 active torsions:
REMARK  status: ('A' for Active; 'I' for Inactive)
REMARK    1  A    between atoms: C3_3  and  O7_19
REMARK    2  A    between atoms: C4_4  and  O6_18
REMARK    3  A    between atoms: C6_6  and  C7_7
REMARK    4  A    between atoms: C8_8  and  O5_17
REMARK    5  A    between atoms: C9_9  and  O4_16
REMARK    6  A    between atoms: C10_10  and  O3_15
REMARK    7  A    between atoms: C11_11  and  C12_13
REMARK    8  A    between atoms: C12_13  and  O2_14
REMARK                            x       y       z     vdW  Elec       q    Type
REMARK                         _______ _______ _______ _____ _____    ______ ____
ROOT
ATOM      1  C7  UNL     1      -1.380  86.648  63.275  0.00  0.00    +0.000 C 
ATOM      2  C8  UNL     1      -2.316  85.526  62.755  0.00  0.00    +0.000 C 
ATOM      3  C9  UNL     1      -3.359  86.085  61.749  0.00  0.00    +0.000 C 
ATOM      4  C10 UNL     1      -3.692  87.550  62.078  0.00  0.00    +0.000 C 
ATOM      5  C11 UNL     1      -2.383  88.414  62.101  0.00  0.00    +0.000 C 
ATOM      6  O1  UNL     1      -1.205  87.631  62.271  0.00  0.00    +0.000 OA
ENDROOT
BRANCH   1  12
ATOM      7  C1  UNL     1       0.344  85.994  65.017  0.00  0.00    +0.000 A 
ATOM      8  C2  UNL     1       1.602  85.497  65.370  0.00  0.00    +0.000 A 
ATOM      9  C3  UNL     1       2.502  85.085  64.378  0.00  0.00    +0.000 A 
ATOM     10  C4  UNL     1       2.140  85.179  63.028  0.00  0.00    +0.000 A 
ATOM     11  C5  UNL     1       0.878  85.678  62.674  0.00  0.00    +0.000 A 
ATOM     12  C6  UNL     1      -0.035  86.076  63.665  0.00  0.00    +0.000 A 
BRANCH  10  13
ATOM     13  O6  UNL     1       3.041  84.777  62.043  0.00  0.00    +0.000 OA
ATOM     14  H15 UNL     1       3.908  84.306  62.278  0.00  0.00    +0.000 HD
ENDBRANCH  10  13
BRANCH   9  15
ATOM     15  O7  UNL     1       3.755  84.588  64.725  0.00  0.00    +0.000 OA
ATOM     16  H16 UNL     1       4.442  85.163  65.200  0.00  0.00    +0.000 HD
ENDBRANCH   9  15
ENDBRANCH   1  12
BRANCH   4  17
ATOM     17  O3  UNL     1      -4.628  88.054  61.157  0.00  0.00    +0.000 OA
ATOM     18  H12 UNL     1      -5.154  88.754  61.626  0.00  0.00    +0.000 HD
ENDBRANCH   4  17
BRANCH   3  19
ATOM     19  O4  UNL     1      -4.530  85.310  61.760  0.00  0.00    +0.000 OA
ATOM     20  H13 UNL     1      -5.126  85.707  62.447  0.00  0.00    +0.000 HD
ENDBRANCH   3  19
BRANCH   2  21
ATOM     21  O5  UNL     1      -2.933  84.864  63.833  0.00  0.00    +0.000 OA
ATOM     22  H14 UNL     1      -3.664  84.304  63.464  0.00  0.00    +0.000 HD
ENDBRANCH   2  21
BRANCH   5  23
ATOM     23  C12 UNL     1      -2.207  89.252  60.826  0.00  0.00    +0.000 C 
BRANCH  23  24
ATOM     24  O2  UNL     1      -2.197  88.413  59.704  0.00  0.00    +0.000 OA
ATOM     25  H11 UNL     1      -1.247  88.166  59.553  0.00  0.00    +0.000 HD
ENDBRANCH  23  24
ENDBRANCH   5  23
TORSDOF 8
ENDMDL
MODEL 4
REMARK VINA RESULT:      -4.0      1.620      2.819
REMARK  Name = .\Catechins.pdb
REMARK  8 active torsions:
REMARK  status: ('A' for Active; 'I' for Inactive)
REMARK    1  A    between atoms: C3_3  and  O7_19
REMARK    2  A    between atoms: C4_4  and  O6_18
REMARK    3  A    between atoms: C6_6  and  C7_7
REMARK    4  A    between atoms: C8_8  and  O5_17
REMARK    5  A    between atoms: C9_9  and  O4_16
REMARK    6  A    between atoms: C10_10  and  O3_15
REMARK    7  A    between atoms: C11_11  and  C12_13
REMARK    8  A    between atoms: C12_13  and  O2_14
REMARK                            x       y       z     vdW  Elec       q    Type
REMARK                         _______ _______ _______ _____ _____    ______ ____
ROOT
ATOM      1  C7  UNL     1      -1.418  87.145  61.743  0.00  0.00    +0.000 C 
ATOM      2  C8  UNL     1      -0.902  87.995  60.552  0.00  0.00    +0.000 C 
ATOM      3  C9  UNL     1       0.573  87.646  60.209  0.00  0.00    +0.000 C 
ATOM      4  C10 UNL     1       1.324  87.188  61.470  0.00  0.00    +0.000 C 
ATOM      5  C11 UNL     1       0.579  85.980  62.140  0.00  0.00    +0.000 C 
ATOM      6  O1  UNL     1      -0.784  85.879  61.740  0.00  0.00    +0.000 OA
ENDROOT
BRANCH   1  12
ATOM      7  C1  UNL     1      -3.786  88.035  61.923  0.00  0.00    +0.000 A 
ATOM      8  C2  UNL     1      -5.171  87.853  61.872  0.00  0.00    +0.000 A 
ATOM      9  C3  UNL     1      -5.706  86.596  61.561  0.00  0.00    +0.000 A 
ATOM     10  C4  UNL     1      -4.848  85.518  61.308  0.00  0.00    +0.000 A 
ATOM     11  C5  UNL     1      -3.459  85.701  61.359  0.00  0.00    +0.000 A 
ATOM     12  C6  UNL     1      -2.917  86.964  61.653  0.00  0.00    +0.000 A 
BRANCH  10  13
ATOM     13  O6  UNL     1      -5.384  84.266  61.007  0.00  0.00    +0.000 OA
ATOM     14  H15 UNL     1      -6.290  84.171  60.563  0.00  0.00    +0.000 HD
ENDBRANCH  10  13
BRANCH   9  15
ATOM     15  O7  UNL     1      -7.085  86.410  61.508  0.00  0.00    +0.000 OA
ATOM     16  H16 UNL     1      -7.690  86.701  62.268  0.00  0.00    +0.000 HD
ENDBRANCH   9  15
ENDBRANCH   1  12
BRANCH   4  17
ATOM     17  O3  UNL     1       2.655  86.861  61.152  0.00  0.00    +0.000 OA
ATOM     18  H12 UNL     1       2.932  87.456  60.406  0.00  0.00    +0.000 HD
ENDBRANCH   4  17
BRANCH   3  19
ATOM     19  O4  UNL     1       1.226  88.746  59.631  0.00  0.00    +0.000 OA
ATOM     20  H13 UNL     1       2.135  88.776  60.027  0.00  0.00    +0.000 HD
ENDBRANCH   3  19
BRANCH   2  21
ATOM     21  O5  UNL     1      -1.064  89.367  60.822  0.00  0.00    +0.000 OA
ATOM     22  H14 UNL     1      -0.378  89.625  61.491  0.00  0.00    +0.000 HD
ENDBRANCH   2  21
BRANCH   5  23
ATOM     23  C12 UNL     1       1.254  84.633  61.843  0.00  0.00    +0.000 C 
BRANCH  23  24
ATOM     24  O2  UNL     1       2.268  84.393  62.780  0.00  0.00    +0.000 OA
ATOM     25  H11 UNL     1       3.066  84.116  62.259  0.00  0.00    +0.000 HD
ENDBRANCH  23  24
ENDBRANCH   5  23
TORSDOF 8
ENDMDL
MODEL 5
REMARK VINA RESULT:      -4.0      2.214      6.015
REMARK  Name = .\Catechins.pdb
REMARK  8 active torsions:
REMARK  status: ('A' for Active; 'I' for Inactive)
REMARK    1  A    between atoms: C3_3  and  O7_19
REMARK    2  A    between atoms: C4_4  and  O6_18
REMARK    3  A    between atoms: C6_6  and  C7_7
REMARK    4  A    between atoms: C8_8  and  O5_17
REMARK    5  A    between atoms: C9_9  and  O4_16
REMARK    6  A    between atoms: C10_10  and  O3_15
REMARK    7  A    between atoms: C11_11  and  C12_13
REMARK    8  A    between atoms: C12_13  and  O2_14
REMARK                            x       y       z     vdW  Elec       q    Type
REMARK                         _______ _______ _______ _____ _____    ______ ____
ROOT
ATOM      1  C7  UNL     1      -3.444  88.139  61.703  0.00  0.00    +0.000 C 
ATOM      2  C8  UNL     1      -3.322  88.354  63.235  0.00  0.00    +0.000 C 
ATOM      3  C9  UNL     1      -4.718  88.343  63.917  0.00  0.00    +0.000 C 
ATOM      4  C10 UNL     1      -5.795  88.860  62.948  0.00  0.00    +0.000 C 
ATOM      5  C11 UNL     1      -5.786  88.018  61.624  0.00  0.00    +0.000 C 
ATOM      6  O1  UNL     1      -4.562  87.317  61.422  0.00  0.00    +0.000 OA
ENDROOT
BRANCH   1  12
ATOM      7  C1  UNL     1      -2.012  86.100  61.225  0.00  0.00    +0.000 A 
ATOM      8  C2  UNL     1      -0.836  85.513  60.752  0.00  0.00    +0.000 A 
ATOM      9  C3  UNL     1       0.185  86.310  60.217  0.00  0.00    +0.000 A 
ATOM     10  C4  UNL     1       0.026  87.701  60.164  0.00  0.00    +0.000 A 
ATOM     11  C5  UNL     1      -1.155  88.289  60.638  0.00  0.00    +0.000 A 
ATOM     12  C6  UNL     1      -2.189  87.493  61.159  0.00  0.00    +0.000 A 
BRANCH  10  13
ATOM     13  O6  UNL     1       1.048  88.491  59.639  0.00  0.00    +0.000 OA
ATOM     14  H15 UNL     1       2.018  88.201  59.682  0.00  0.00    +0.000 HD
ENDBRANCH  10  13
BRANCH   9  15
ATOM     15  O7  UNL     1       1.359  85.728  59.744  0.00  0.00    +0.000 OA
ATOM     16  H16 UNL     1       2.023  86.252  59.184  0.00  0.00    +0.000 HD
ENDBRANCH   9  15
ENDBRANCH   1  12
BRANCH   4  17
ATOM     17  O3  UNL     1      -7.058  88.836  63.567  0.00  0.00    +0.000 OA
ATOM     18  H12 UNL     1      -7.705  88.489  62.899  0.00  0.00    +0.000 HD
ENDBRANCH   4  17
BRANCH   3  19
ATOM     19  O4  UNL     1      -4.709  89.119  65.087  0.00  0.00    +0.000 OA
ATOM     20  H13 UNL     1      -3.930  89.729  65.017  0.00  0.00    +0.000 HD
ENDBRANCH   3  19
BRANCH   2  21
ATOM     21  O5  UNL     1      -2.617  89.542  63.508  0.00  0.00    +0.000 OA
ATOM     22  H14 UNL     1      -1.693  89.291  63.764  0.00  0.00    +0.000 HD
ENDBRANCH   2  21
BRANCH   5  23
ATOM     23  C12 UNL     1      -6.927  86.991  61.571  0.00  0.00    +0.000 C 
BRANCH  23  24
ATOM     24  O2  UNL     1      -6.837  86.243  60.389  0.00  0.00    +0.000 OA
ATOM     25  H11 UNL     1      -5.905  85.905  60.347  0.00  0.00    +0.000 HD
ENDBRANCH  23  24
ENDBRANCH   5  23
TORSDOF 8
ENDMDL
MODEL 6
REMARK VINA RESULT:      -3.9      2.107      6.459
REMARK  Name = .\Catechins.pdb
REMARK  8 active torsions:
REMARK  status: ('A' for Active; 'I' for Inactive)
REMARK    1  A    between atoms: C3_3  and  O7_19
REMARK    2  A    between atoms: C4_4  and  O6_18
REMARK    3  A    between atoms: C6_6  and  C7_7
REMARK    4  A    between atoms: C8_8  and  O5_17
REMARK    5  A    between atoms: C9_9  and  O4_16
REMARK    6  A    between atoms: C10_10  and  O3_15
REMARK    7  A    between atoms: C11_11  and  C12_13
REMARK    8  A    between atoms: C12_13  and  O2_14
REMARK                            x       y       z     vdW  Elec       q    Type
REMARK                         _______ _______ _______ _____ _____    ______ ____
ROOT
ATOM      1  C7  UNL     1      -1.232  86.452  62.624  0.00  0.00    +0.000 C 
ATOM      2  C8  UNL     1      -0.975  87.153  61.264  0.00  0.00    +0.000 C 
ATOM      3  C9  UNL     1      -2.076  88.205  60.957  0.00  0.00    +0.000 C 
ATOM      4  C10 UNL     1      -3.412  87.788  61.597  0.00  0.00    +0.000 C 
ATOM      5  C11 UNL     1      -3.231  87.565  63.139  0.00  0.00    +0.000 C 
ATOM      6  O1  UNL     1      -1.874  87.348  63.512  0.00  0.00    +0.000 OA
ENDROOT
BRANCH   1  12
ATOM      7  C1  UNL     1       0.273  86.023  64.621  0.00  0.00    +0.000 A 
ATOM      8  C2  UNL     1       1.492  85.620  65.172  0.00  0.00    +0.000 A 
ATOM      9  C3  UNL     1       2.532  85.181  64.341  0.00  0.00    +0.000 A 
ATOM     10  C4  UNL     1       2.348  85.153  62.952  0.00  0.00    +0.000 A 
ATOM     11  C5  UNL     1       1.124  85.558  62.400  0.00  0.00    +0.000 A 
ATOM     12  C6  UNL     1       0.072  85.982  63.229  0.00  0.00    +0.000 A 
BRANCH  10  13
ATOM     13  O6  UNL     1       3.387  84.724  62.128  0.00  0.00    +0.000 OA
ATOM     14  H15 UNL     1       4.358  84.884  62.373  0.00  0.00    +0.000 HD
ENDBRANCH  10  13
BRANCH   9  15
ATOM     15  O7  UNL     1       3.748  84.778  64.886  0.00  0.00    +0.000 OA
ATOM     16  H16 UNL     1       4.106  85.184  65.743  0.00  0.00    +0.000 HD
ENDBRANCH   9  15
ENDBRANCH   1  12
BRANCH   4  17
ATOM     17  O3  UNL     1      -4.402  88.751  61.326  0.00  0.00    +0.000 OA
ATOM     18  H12 UNL     1      -4.320  88.993  60.367  0.00  0.00    +0.000 HD
ENDBRANCH   4  17
BRANCH   3  19
ATOM     19  O4  UNL     1      -2.237  88.373  59.572  0.00  0.00    +0.000 OA
ATOM     20  H13 UNL     1      -2.484  89.323  59.428  0.00  0.00    +0.000 HD
ENDBRANCH   3  19
BRANCH   2  21
ATOM     21  O5  UNL     1      -0.864  86.199  60.234  0.00  0.00    +0.000 OA
ATOM     22  H14 UNL     1      -0.809  86.689  59.374  0.00  0.00    +0.000 HD
ENDBRANCH   2  21
BRANCH   5  23
ATOM     23  C12 UNL     1      -3.761  88.742  63.971  0.00  0.00    +0.000 C 
BRANCH  23  24
ATOM     24  O2  UNL     1      -5.157  88.666  64.065  0.00  0.00    +0.000 OA
ATOM     25  H11 UNL     1      -5.360  88.476  65.018  0.00  0.00    +0.000 HD
ENDBRANCH  23  24
ENDBRANCH   5  23
TORSDOF 8
ENDMDL
MODEL 7
REMARK VINA RESULT:      -3.9      1.863      6.035
REMARK  Name = .\Catechins.pdb
REMARK  8 active torsions:
REMARK  status: ('A' for Active; 'I' for Inactive)
REMARK    1  A    between atoms: C3_3  and  O7_19
REMARK    2  A    between atoms: C4_4  and  O6_18
REMARK    3  A    between atoms: C6_6  and  C7_7
REMARK    4  A    between atoms: C8_8  and  O5_17
REMARK    5  A    between atoms: C9_9  and  O4_16
REMARK    6  A    between atoms: C10_10  and  O3_15
REMARK    7  A    between atoms: C11_11  and  C12_13
REMARK    8  A    between atoms: C12_13  and  O2_14
REMARK                            x       y       z     vdW  Elec       q    Type
REMARK                         _______ _______ _______ _____ _____    ______ ____
ROOT
ATOM      1  C7  UNL     1      -1.559  86.633  62.291  0.00  0.00    +0.000 C 
ATOM      2  C8  UNL     1      -2.078  87.561  63.421  0.00  0.00    +0.000 C 
ATOM      3  C9  UNL     1      -3.630  87.632  63.423  0.00  0.00    +0.000 C 
ATOM      4  C10 UNL     1      -4.178  87.437  61.999  0.00  0.00    +0.000 C 
ATOM      5  C11 UNL     1      -3.656  86.087  61.394  0.00  0.00    +0.000 C 
ATOM      6  O1  UNL     1      -2.494  85.596  62.054  0.00  0.00    +0.000 OA
ENDROOT
BRANCH   1  12
ATOM      7  C1  UNL     1       0.533  85.312  61.730  0.00  0.00    +0.000 A 
ATOM      8  C2  UNL     1       1.751  84.733  62.096  0.00  0.00    +0.000 A 
ATOM      9  C3  UNL     1       2.225  84.857  63.409  0.00  0.00    +0.000 A 
ATOM     10  C4  UNL     1       1.472  85.560  64.358  0.00  0.00    +0.000 A 
ATOM     11  C5  UNL     1       0.250  86.142  63.990  0.00  0.00    +0.000 A 
ATOM     12  C6  UNL     1      -0.222  86.035  62.671  0.00  0.00    +0.000 A 
BRANCH  10  13
ATOM     13  O6  UNL     1       1.943  85.674  65.664  0.00  0.00    +0.000 OA
ATOM     14  H15 UNL     1       2.219  86.569  66.052  0.00  0.00    +0.000 HD
ENDBRANCH  10  13
BRANCH   9  15
ATOM     15  O7  UNL     1       3.439  84.282  63.777  0.00  0.00    +0.000 OA
ATOM     16  H16 UNL     1       3.651  83.312  63.572  0.00  0.00    +0.000 HD
ENDBRANCH   9  15
ENDBRANCH   1  12
BRANCH   4  17
ATOM     17  O3  UNL     1      -5.585  87.490  62.009  0.00  0.00    +0.000 OA
ATOM     18  H12 UNL     1      -5.844  88.286  62.543  0.00  0.00    +0.000 HD
ENDBRANCH   4  17
BRANCH   3  19
ATOM     19  O4  UNL     1      -4.074  88.856  63.948  0.00  0.00    +0.000 OA
ATOM     20  H13 UNL     1      -3.299  89.474  63.923  0.00  0.00    +0.000 HD
ENDBRANCH   3  19
BRANCH   2  21
ATOM     21  O5  UNL     1      -1.497  88.839  63.310  0.00  0.00    +0.000 OA
ATOM     22  H14 UNL     1      -2.113  89.488  63.739  0.00  0.00    +0.000 HD
ENDBRANCH   2  21
BRANCH   5  23
ATOM     23  C12 UNL     1      -4.717  84.977  61.428  0.00  0.00    +0.000 C 
BRANCH  23  24
ATOM     24  O2  UNL     1      -5.728  85.258  60.499  0.00  0.00    +0.000 OA
ATOM     25  H11 UNL     1      -5.474  84.788  59.663  0.00  0.00    +0.000 HD
ENDBRANCH  23  24
ENDBRANCH   5  23
TORSDOF 8
ENDMDL
MODEL 8
REMARK VINA RESULT:      -3.8      1.369      1.862
REMARK  Name = .\Catechins.pdb
REMARK  8 active torsions:
REMARK  status: ('A' for Active; 'I' for Inactive)
REMARK    1  A    between atoms: C3_3  and  O7_19
REMARK    2  A    between atoms: C4_4  and  O6_18
REMARK    3  A    between atoms: C6_6  and  C7_7
REMARK    4  A    between atoms: C8_8  and  O5_17
REMARK    5  A    between atoms: C9_9  and  O4_16
REMARK    6  A    between atoms: C10_10  and  O3_15
REMARK    7  A    between atoms: C11_11  and  C12_13
REMARK    8  A    between atoms: C12_13  and  O2_14
REMARK                            x       y       z     vdW  Elec       q    Type
REMARK                         _______ _______ _______ _____ _____    ______ ____
ROOT
ATOM      1  C7  UNL     1      -0.186  86.126  60.976  0.00  0.00    +0.000 C 
ATOM      2  C8  UNL     1       0.725  86.628  62.128  0.00  0.00    +0.000 C 
ATOM      3  C9  UNL     1       2.140  86.998  61.605  0.00  0.00    +0.000 C 
ATOM      4  C10 UNL     1       2.506  86.133  60.387  0.00  0.00    +0.000 C 
ATOM      5  C11 UNL     1       1.416  86.279  59.269  0.00  0.00    +0.000 C 
ATOM      6  O1  UNL     1       0.173  86.767  59.766  0.00  0.00    +0.000 OA
ENDROOT
BRANCH   1  12
ATOM      7  C1  UNL     1      -2.517  85.362  61.621  0.00  0.00    +0.000 A 
ATOM      8  C2  UNL     1      -3.866  85.624  61.876  0.00  0.00    +0.000 A 
ATOM      9  C3  UNL     1      -4.358  86.933  61.792  0.00  0.00    +0.000 A 
ATOM     10  C4  UNL     1      -3.495  87.980  61.445  0.00  0.00    +0.000 A 
ATOM     11  C5  UNL     1      -2.141  87.716  61.189  0.00  0.00    +0.000 A 
ATOM     12  C6  UNL     1      -1.638  86.408  61.290  0.00  0.00    +0.000 A 
BRANCH  10  13
ATOM     13  O6  UNL     1      -3.990  89.280  61.354  0.00  0.00    +0.000 OA
ATOM     14  H15 UNL     1      -3.430  90.035  60.976  0.00  0.00    +0.000 HD
ENDBRANCH  10  13
BRANCH   9  15
ATOM     15  O7  UNL     1      -5.701  87.199  62.046  0.00  0.00    +0.000 OA
ATOM     16  H16 UNL     1      -6.089  88.128  61.933  0.00  0.00    +0.000 HD
ENDBRANCH   9  15
ENDBRANCH   1  12
BRANCH   4  17
ATOM     17  O3  UNL     1       3.784  86.481  59.911  0.00  0.00    +0.000 OA
ATOM     18  H12 UNL     1       3.818  86.226  58.952  0.00  0.00    +0.000 HD
ENDBRANCH   4  17
BRANCH   3  19
ATOM     19  O4  UNL     1       3.103  86.840  62.615  0.00  0.00    +0.000 OA
ATOM     20  H13 UNL     1       2.980  87.596  63.245  0.00  0.00    +0.000 HD
ENDBRANCH   3  19
BRANCH   2  21
ATOM     21  O5  UNL     1       0.782  85.672  63.159  0.00  0.00    +0.000 OA
ATOM     22  H14 UNL     1       0.852  84.777  62.737  0.00  0.00    +0.000 HD
ENDBRANCH   2  21
BRANCH   5  23
ATOM     23  C12 UNL     1       1.860  87.207  58.128  0.00  0.00    +0.000 C 
BRANCH  23  24
ATOM     24  O2  UNL     1       0.767  87.958  57.676  0.00  0.00    +0.000 OA
ATOM     25  H11 UNL     1       0.503  87.563  56.804  0.00  0.00    +0.000 HD
ENDBRANCH  23  24
ENDBRANCH   5  23
TORSDOF 8
ENDMDL
MODEL 9
REMARK VINA RESULT:      -3.7      1.523      6.191
REMARK  Name = .\Catechins.pdb
REMARK  8 active torsions:
REMARK  status: ('A' for Active; 'I' for Inactive)
REMARK    1  A    between atoms: C3_3  and  O7_19
REMARK    2  A    between atoms: C4_4  and  O6_18
REMARK    3  A    between atoms: C6_6  and  C7_7
REMARK    4  A    between atoms: C8_8  and  O5_17
REMARK    5  A    between atoms: C9_9  and  O4_16
REMARK    6  A    between atoms: C10_10  and  O3_15
REMARK    7  A    between atoms: C11_11  and  C12_13
REMARK    8  A    between atoms: C12_13  and  O2_14
REMARK                            x       y       z     vdW  Elec       q    Type
REMARK                         _______ _______ _______ _____ _____    ______ ____
ROOT
ATOM      1  C7  UNL     1      -3.086  86.338  62.511  0.00  0.00    +0.000 C 
ATOM      2  C8  UNL     1      -3.953  85.673  61.409  0.00  0.00    +0.000 C 
ATOM      3  C9  UNL     1      -5.266  86.468  61.171  0.00  0.00    +0.000 C 
ATOM      4  C10 UNL     1      -5.713  87.169  62.465  0.00  0.00    +0.000 C 
ATOM      5  C11 UNL     1      -4.566  88.089  63.011  0.00  0.00    +0.000 C 
ATOM      6  O1  UNL     1      -3.284  87.740  62.496  0.00  0.00    +0.000 OA
ENDROOT
BRANCH   1  12
ATOM      7  C1  UNL     1      -0.734  85.949  63.377  0.00  0.00    +0.000 A 
ATOM      8  C2  UNL     1       0.624  85.697  63.165  0.00  0.00    +0.000 A 
ATOM      9  C3  UNL     1       1.115  85.533  61.862  0.00  0.00    +0.000 A 
ATOM     10  C4  UNL     1       0.242  85.628  60.771  0.00  0.00    +0.000 A 
ATOM     11  C5  UNL     1      -1.121  85.881  60.986  0.00  0.00    +0.000 A 
ATOM     12  C6  UNL     1      -1.622  86.029  62.290  0.00  0.00    +0.000 A 
BRANCH  10  13
ATOM     13  O6  UNL     1       0.736  85.473  59.477  0.00  0.00    +0.000 OA
ATOM     14  H15 UNL     1       0.491  84.671  58.909  0.00  0.00    +0.000 HD
ENDBRANCH  10  13
BRANCH   9  15
ATOM     15  O7  UNL     1       2.468  85.281  61.646  0.00  0.00    +0.000 OA
ATOM     16  H16 UNL     1       3.145  86.033  61.584  0.00  0.00    +0.000 HD
ENDBRANCH   9  15
ENDBRANCH   1  12
BRANCH   4  17
ATOM     17  O3  UNL     1      -6.896  87.897  62.239  0.00  0.00    +0.000 OA
ATOM     18  H12 UNL     1      -7.069  87.880  61.262  0.00  0.00    +0.000 HD
ENDBRANCH   4  17
BRANCH   3  19
ATOM     19  O4  UNL     1      -6.285  85.622  60.703  0.00  0.00    +0.000 OA
ATOM     20  H13 UNL     1      -6.189  85.581  59.717  0.00  0.00    +0.000 HD
ENDBRANCH   3  19
BRANCH   2  21
ATOM     21  O5  UNL     1      -4.209  84.327  61.734  0.00  0.00    +0.000 OA
ATOM     22  H14 UNL     1      -4.097  83.791  60.906  0.00  0.00    +0.000 HD
ENDBRANCH   2  21
BRANCH   5  23
ATOM     23  C12 UNL     1      -4.804  89.574  62.703  0.00  0.00    +0.000 C 
BRANCH  23  24
ATOM     24  O2  UNL     1      -5.039  89.743  61.332  0.00  0.00    +0.000 OA
ATOM     25  H11 UNL     1      -4.147  89.747  60.897  0.00  0.00    +0.000 HD
ENDBRANCH  23  24
ENDBRANCH   5  23
TORSDOF 8
ENDMDL
