MODEL 1
REMARK VINA RESULT:      -5.5      0.000      0.000
REMARK  Name = .\Catechins.pdb
REMARK  8 active torsions:
REMARK  status: ('A' for Active; 'I' for Inactive)
REMARK    1  A    between atoms: C3_3  and  O7_19
REMARK    2  A    between atoms: C4_4  and  O6_18
REMARK    3  A    between atoms: C6_6  and  C7_7
REMARK    4  A    between atoms: C8_8  and  O5_17
REMARK    5  A    between atoms: C9_9  and  O4_16
REMARK    6  A    between atoms: C10_10  and  O3_15
REMARK    7  A    between atoms: C11_11  and  C12_13
REMARK    8  A    between atoms: C12_13  and  O2_14
REMARK                            x       y       z     vdW  Elec       q    Type
REMARK                         _______ _______ _______ _____ _____    ______ ____
ROOT
ATOM      1  C7  UNL     1       4.413  63.502  41.316  0.00  0.00    +0.000 C 
ATOM      2  C8  UNL     1       2.891  63.324  41.073  0.00  0.00    +0.000 C 
ATOM      3  C9  UNL     1       2.557  61.871  40.636  0.00  0.00    +0.000 C 
ATOM      4  C10 UNL     1       3.740  61.254  39.871  0.00  0.00    +0.000 C 
ATOM      5  C11 UNL     1       5.044  61.317  40.740  0.00  0.00    +0.000 C 
ATOM      6  O1  UNL     1       4.970  62.286  41.782  0.00  0.00    +0.000 OA
ENDROOT
BRANCH   1  12
ATOM      7  C1  UNL     1       3.803  64.762  43.431  0.00  0.00    +0.000 A 
ATOM      8  C2  UNL     1       4.017  65.797  44.346  0.00  0.00    +0.000 A 
ATOM      9  C3  UNL     1       5.085  66.686  44.167  0.00  0.00    +0.000 A 
ATOM     10  C4  UNL     1       5.936  66.540  43.064  0.00  0.00    +0.000 A 
ATOM     11  C5  UNL     1       5.721  65.502  42.147  0.00  0.00    +0.000 A 
ATOM     12  C6  UNL     1       4.662  64.596  42.330  0.00  0.00    +0.000 A 
BRANCH  10  13
ATOM     13  O6  UNL     1       6.992  67.432  42.886  0.00  0.00    +0.000 OA
ATOM     14  H15 UNL     1       7.947  67.109  42.779  0.00  0.00    +0.000 HD
ENDBRANCH  10  13
BRANCH   9  15
ATOM     15  O7  UNL     1       5.303  67.718  45.078  0.00  0.00    +0.000 OA
ATOM     16  H16 UNL     1       5.569  68.647  44.773  0.00  0.00    +0.000 HD
ENDBRANCH   9  15
ENDBRANCH   1  12
BRANCH   4  17
ATOM     17  O3  UNL     1       3.437  59.934  39.489  0.00  0.00    +0.000 OA
ATOM     18  H12 UNL     1       3.931  59.752  38.647  0.00  0.00    +0.000 HD
ENDBRANCH   4  17
BRANCH   3  19
ATOM     19  O4  UNL     1       1.400  61.841  39.842  0.00  0.00    +0.000 OA
ATOM     20  H13 UNL     1       0.990  60.946  39.971  0.00  0.00    +0.000 HD
ENDBRANCH   3  19
BRANCH   2  21
ATOM     21  O5  UNL     1       2.432  64.269  40.135  0.00  0.00    +0.000 OA
ATOM     22  H14 UNL     1       1.453  64.370  40.264  0.00  0.00    +0.000 HD
ENDBRANCH   2  21
BRANCH   5  23
ATOM     23  C12 UNL     1       5.389  59.965  41.384  0.00  0.00    +0.000 C 
BRANCH  23  24
ATOM     24  O2  UNL     1       6.042  59.149  40.451  0.00  0.00    +0.000 OA
ATOM     25  H11 UNL     1       7.014  59.307  40.578  0.00  0.00    +0.000 HD
ENDBRANCH  23  24
ENDBRANCH   5  23
TORSDOF 8
ENDMDL
MODEL 2
REMARK VINA RESULT:      -5.1      1.238      2.712
REMARK  Name = .\Catechins.pdb
REMARK  8 active torsions:
REMARK  status: ('A' for Active; 'I' for Inactive)
REMARK    1  A    between atoms: C3_3  and  O7_19
REMARK    2  A    between atoms: C4_4  and  O6_18
REMARK    3  A    between atoms: C6_6  and  C7_7
REMARK    4  A    between atoms: C8_8  and  O5_17
REMARK    5  A    between atoms: C9_9  and  O4_16
REMARK    6  A    between atoms: C10_10  and  O3_15
REMARK    7  A    between atoms: C11_11  and  C12_13
REMARK    8  A    between atoms: C12_13  and  O2_14
REMARK                            x       y       z     vdW  Elec       q    Type
REMARK                         _______ _______ _______ _____ _____    ______ ____
ROOT
ATOM      1  C7  UNL     1       4.350  63.628  42.092  0.00  0.00    +0.000 C 
ATOM      2  C8  UNL     1       5.517  63.340  41.111  0.00  0.00    +0.000 C 
ATOM      3  C9  UNL     1       5.017  62.588  39.847  0.00  0.00    +0.000 C 
ATOM      4  C10 UNL     1       3.799  61.713  40.189  0.00  0.00    +0.000 C 
ATOM      5  C11 UNL     1       2.666  62.584  40.835  0.00  0.00    +0.000 C 
ATOM      6  O1  UNL     1       3.148  63.815  41.366  0.00  0.00    +0.000 OA
ENDROOT
BRANCH   1  12
ATOM      7  C1  UNL     1       3.801  65.233  43.978  0.00  0.00    +0.000 A 
ATOM      8  C2  UNL     1       4.058  66.394  44.713  0.00  0.00    +0.000 A 
ATOM      9  C3  UNL     1       5.154  67.206  44.389  0.00  0.00    +0.000 A 
ATOM     10  C4  UNL     1       5.989  66.854  43.321  0.00  0.00    +0.000 A 
ATOM     11  C5  UNL     1       5.731  65.690  42.584  0.00  0.00    +0.000 A 
ATOM     12  C6  UNL     1       4.644  64.862  42.915  0.00  0.00    +0.000 A 
BRANCH  10  13
ATOM     13  O6  UNL     1       7.073  67.669  42.997  0.00  0.00    +0.000 OA
ATOM     14  H15 UNL     1       7.927  67.657  43.543  0.00  0.00    +0.000 HD
ENDBRANCH  10  13
BRANCH   9  15
ATOM     15  O7  UNL     1       5.414  68.362  45.120  0.00  0.00    +0.000 OA
ATOM     16  H16 UNL     1       5.652  68.326  46.105  0.00  0.00    +0.000 HD
ENDBRANCH   9  15
ENDBRANCH   1  12
BRANCH   4  17
ATOM     17  O3  UNL     1       3.343  61.044  39.038  0.00  0.00    +0.000 OA
ATOM     18  H12 UNL     1       3.047  61.738  38.393  0.00  0.00    +0.000 HD
ENDBRANCH   4  17
BRANCH   3  19
ATOM     19  O4  UNL     1       6.040  61.798  39.297  0.00  0.00    +0.000 OA
ATOM     20  H13 UNL     1       5.952  61.867  38.311  0.00  0.00    +0.000 HD
ENDBRANCH   3  19
BRANCH   2  21
ATOM     21  O5  UNL     1       6.544  62.634  41.766  0.00  0.00    +0.000 OA
ATOM     22  H14 UNL     1       6.771  61.846  41.208  0.00  0.00    +0.000 HD
ENDBRANCH   2  21
BRANCH   5  23
ATOM     23  C12 UNL     1       1.538  62.913  39.847  0.00  0.00    +0.000 C 
BRANCH  23  24
ATOM     24  O2  UNL     1       0.590  61.880  39.849  0.00  0.00    +0.000 OA
ATOM     25  H11 UNL     1       0.158  61.904  40.742  0.00  0.00    +0.000 HD
ENDBRANCH  23  24
ENDBRANCH   5  23
TORSDOF 8
ENDMDL
MODEL 3
REMARK VINA RESULT:      -5.0      0.676      1.522
REMARK  Name = .\Catechins.pdb
REMARK  8 active torsions:
REMARK  status: ('A' for Active; 'I' for Inactive)
REMARK    1  A    between atoms: C3_3  and  O7_19
REMARK    2  A    between atoms: C4_4  and  O6_18
REMARK    3  A    between atoms: C6_6  and  C7_7
REMARK    4  A    between atoms: C8_8  and  O5_17
REMARK    5  A    between atoms: C9_9  and  O4_16
REMARK    6  A    between atoms: C10_10  and  O3_15
REMARK    7  A    between atoms: C11_11  and  C12_13
REMARK    8  A    between atoms: C12_13  and  O2_14
REMARK                            x       y       z     vdW  Elec       q    Type
REMARK                         _______ _______ _______ _____ _____    ______ ____
ROOT
ATOM      1  C7  UNL     1       4.640  63.606  40.993  0.00  0.00    +0.000 C 
ATOM      2  C8  UNL     1       3.101  63.497  40.832  0.00  0.00    +0.000 C 
ATOM      3  C9  UNL     1       2.668  62.033  40.544  0.00  0.00    +0.000 C 
ATOM      4  C10 UNL     1       3.778  61.282  39.789  0.00  0.00    +0.000 C 
ATOM      5  C11 UNL     1       5.123  61.346  40.593  0.00  0.00    +0.000 C 
ATOM      6  O1  UNL     1       5.151  62.406  41.544  0.00  0.00    +0.000 OA
ENDROOT
BRANCH   1  12
ATOM      7  C1  UNL     1       6.162  65.522  41.664  0.00  0.00    +0.000 A 
ATOM      8  C2  UNL     1       6.503  66.574  42.518  0.00  0.00    +0.000 A 
ATOM      9  C3  UNL     1       5.690  66.882  43.618  0.00  0.00    +0.000 A 
ATOM     10  C4  UNL     1       4.536  66.128  43.864  0.00  0.00    +0.000 A 
ATOM     11  C5  UNL     1       4.194  65.072  43.006  0.00  0.00    +0.000 A 
ATOM     12  C6  UNL     1       4.995  64.770  41.892  0.00  0.00    +0.000 A 
BRANCH  10  13
ATOM     13  O6  UNL     1       3.735  66.432  44.963  0.00  0.00    +0.000 OA
ATOM     14  H15 UNL     1       3.682  67.373  45.336  0.00  0.00    +0.000 HD
ENDBRANCH  10  13
BRANCH   9  15
ATOM     15  O7  UNL     1       6.027  67.931  44.471  0.00  0.00    +0.000 OA
ATOM     16  H16 UNL     1       6.890  68.451  44.358  0.00  0.00    +0.000 HD
ENDBRANCH   9  15
ENDBRANCH   1  12
BRANCH   4  17
ATOM     17  O3  UNL     1       3.386  59.954  39.542  0.00  0.00    +0.000 OA
ATOM     18  H12 UNL     1       3.525  59.446  40.383  0.00  0.00    +0.000 HD
ENDBRANCH   4  17
BRANCH   3  19
ATOM     19  O4  UNL     1       1.475  62.000  39.805  0.00  0.00    +0.000 OA
ATOM     20  H13 UNL     1       0.999  62.850  39.995  0.00  0.00    +0.000 HD
ENDBRANCH   3  19
BRANCH   2  21
ATOM     21  O5  UNL     1       2.649  64.380  39.833  0.00  0.00    +0.000 OA
ATOM     22  H14 UNL     1       1.990  63.892  39.274  0.00  0.00    +0.000 HD
ENDBRANCH   2  21
BRANCH   5  23
ATOM     23  C12 UNL     1       5.425  60.039  41.342  0.00  0.00    +0.000 C 
BRANCH  23  24
ATOM     24  O2  UNL     1       5.857  59.062  40.435  0.00  0.00    +0.000 OA
ATOM     25  H11 UNL     1       6.719  58.720  40.788  0.00  0.00    +0.000 HD
ENDBRANCH  23  24
ENDBRANCH   5  23
TORSDOF 8
ENDMDL
MODEL 4
REMARK VINA RESULT:      -4.8      1.243      3.119
REMARK  Name = .\Catechins.pdb
REMARK  8 active torsions:
REMARK  status: ('A' for Active; 'I' for Inactive)
REMARK    1  A    between atoms: C3_3  and  O7_19
REMARK    2  A    between atoms: C4_4  and  O6_18
REMARK    3  A    between atoms: C6_6  and  C7_7
REMARK    4  A    between atoms: C8_8  and  O5_17
REMARK    5  A    between atoms: C9_9  and  O4_16
REMARK    6  A    between atoms: C10_10  and  O3_15
REMARK    7  A    between atoms: C11_11  and  C12_13
REMARK    8  A    between atoms: C12_13  and  O2_14
REMARK                            x       y       z     vdW  Elec       q    Type
REMARK                         _______ _______ _______ _____ _____    ______ ____
ROOT
ATOM      1  C7  UNL     1       4.196  63.457  41.961  0.00  0.00    +0.000 C 
ATOM      2  C8  UNL     1       5.235  62.313  41.826  0.00  0.00    +0.000 C 
ATOM      3  C9  UNL     1       4.997  61.487  40.532  0.00  0.00    +0.000 C 
ATOM      4  C10 UNL     1       3.505  61.491  40.158  0.00  0.00    +0.000 C 
ATOM      5  C11 UNL     1       2.984  62.964  40.015  0.00  0.00    +0.000 C 
ATOM      6  O1  UNL     1       3.815  63.913  40.676  0.00  0.00    +0.000 OA
ENDROOT
BRANCH   1  12
ATOM      7  C1  UNL     1       6.165  64.822  42.795  0.00  0.00    +0.000 A 
ATOM      8  C2  UNL     1       6.698  65.863  43.560  0.00  0.00    +0.000 A 
ATOM      9  C3  UNL     1       5.852  66.696  44.305  0.00  0.00    +0.000 A 
ATOM     10  C4  UNL     1       4.469  66.478  44.287  0.00  0.00    +0.000 A 
ATOM     11  C5  UNL     1       3.935  65.433  43.519  0.00  0.00    +0.000 A 
ATOM     12  C6  UNL     1       4.776  64.606  42.756  0.00  0.00    +0.000 A 
BRANCH  10  13
ATOM     13  O6  UNL     1       3.632  67.303  45.036  0.00  0.00    +0.000 OA
ATOM     14  H15 UNL     1       2.625  67.189  45.023  0.00  0.00    +0.000 HD
ENDBRANCH  10  13
BRANCH   9  15
ATOM     15  O7  UNL     1       6.380  67.736  45.067  0.00  0.00    +0.000 OA
ATOM     16  H16 UNL     1       7.355  67.750  45.342  0.00  0.00    +0.000 HD
ENDBRANCH   9  15
ENDBRANCH   1  12
BRANCH   4  17
ATOM     17  O3  UNL     1       3.297  60.752  38.979  0.00  0.00    +0.000 OA
ATOM     18  H12 UNL     1       3.803  59.903  39.073  0.00  0.00    +0.000 HD
ENDBRANCH   4  17
BRANCH   3  19
ATOM     19  O4  UNL     1       5.450  60.167  40.690  0.00  0.00    +0.000 OA
ATOM     20  H13 UNL     1       6.439  60.213  40.758  0.00  0.00    +0.000 HD
ENDBRANCH   3  19
BRANCH   2  21
ATOM     21  O5  UNL     1       5.219  61.498  42.975  0.00  0.00    +0.000 OA
ATOM     22  H14 UNL     1       4.475  60.851  42.875  0.00  0.00    +0.000 HD
ENDBRANCH   2  21
BRANCH   5  23
ATOM     23  C12 UNL     1       2.850  63.402  38.549  0.00  0.00    +0.000 C 
BRANCH  23  24
ATOM     24  O2  UNL     1       2.645  64.786  38.484  0.00  0.00    +0.000 OA
ATOM     25  H11 UNL     1       2.488  65.086  39.417  0.00  0.00    +0.000 HD
ENDBRANCH  23  24
ENDBRANCH   5  23
TORSDOF 8
ENDMDL
MODEL 5
REMARK VINA RESULT:      -4.8      1.600      3.151
REMARK  Name = .\Catechins.pdb
REMARK  8 active torsions:
REMARK  status: ('A' for Active; 'I' for Inactive)
REMARK    1  A    between atoms: C3_3  and  O7_19
REMARK    2  A    between atoms: C4_4  and  O6_18
REMARK    3  A    between atoms: C6_6  and  C7_7
REMARK    4  A    between atoms: C8_8  and  O5_17
REMARK    5  A    between atoms: C9_9  and  O4_16
REMARK    6  A    between atoms: C10_10  and  O3_15
REMARK    7  A    between atoms: C11_11  and  C12_13
REMARK    8  A    between atoms: C12_13  and  O2_14
REMARK                            x       y       z     vdW  Elec       q    Type
REMARK                         _______ _______ _______ _____ _____    ______ ____
ROOT
ATOM      1  C7  UNL     1       4.031  64.530  43.008  0.00  0.00    +0.000 C 
ATOM      2  C8  UNL     1       5.179  63.489  43.090  0.00  0.00    +0.000 C 
ATOM      3  C9  UNL     1       5.158  62.530  41.868  0.00  0.00    +0.000 C 
ATOM      4  C10 UNL     1       3.721  62.349  41.352  0.00  0.00    +0.000 C 
ATOM      5  C11 UNL     1       3.085  63.742  41.011  0.00  0.00    +0.000 C 
ATOM      6  O1  UNL     1       3.749  64.827  41.652  0.00  0.00    +0.000 OA
ENDROOT
BRANCH   1  12
ATOM      7  C1  UNL     1       3.428  66.643  44.275  0.00  0.00    +0.000 A 
ATOM      8  C2  UNL     1       3.786  67.831  44.918  0.00  0.00    +0.000 A 
ATOM      9  C3  UNL     1       5.135  68.198  45.021  0.00  0.00    +0.000 A 
ATOM     10  C4  UNL     1       6.125  67.372  44.473  0.00  0.00    +0.000 A 
ATOM     11  C5  UNL     1       5.764  66.180  43.829  0.00  0.00    +0.000 A 
ATOM     12  C6  UNL     1       4.415  65.798  43.737  0.00  0.00    +0.000 A 
BRANCH  10  13
ATOM     13  O6  UNL     1       7.464  67.745  44.571  0.00  0.00    +0.000 OA
ATOM     14  H15 UNL     1       7.786  68.653  44.258  0.00  0.00    +0.000 HD
ENDBRANCH  10  13
BRANCH   9  15
ATOM     15  O7  UNL     1       5.496  69.380  45.662  0.00  0.00    +0.000 OA
ATOM     16  H16 UNL     1       6.338  69.885  45.409  0.00  0.00    +0.000 HD
ENDBRANCH   9  15
ENDBRANCH   1  12
BRANCH   4  17
ATOM     17  O3  UNL     1       3.709  61.490  40.238  0.00  0.00    +0.000 OA
ATOM     18  H12 UNL     1       4.539  61.667  39.723  0.00  0.00    +0.000 HD
ENDBRANCH   4  17
BRANCH   3  19
ATOM     19  O4  UNL     1       5.712  61.284  42.201  0.00  0.00    +0.000 OA
ATOM     20  H13 UNL     1       6.566  61.210  41.702  0.00  0.00    +0.000 HD
ENDBRANCH   3  19
BRANCH   2  21
ATOM     21  O5  UNL     1       5.116  62.785  44.308  0.00  0.00    +0.000 OA
ATOM     22  H14 UNL     1       5.957  62.267  44.401  0.00  0.00    +0.000 HD
ENDBRANCH   2  21
BRANCH   5  23
ATOM     23  C12 UNL     1       3.069  64.031  39.503  0.00  0.00    +0.000 C 
BRANCH  23  24
ATOM     24  O2  UNL     1       1.929  63.458  38.922  0.00  0.00    +0.000 OA
ATOM     25  H11 UNL     1       2.171  63.257  37.981  0.00  0.00    +0.000 HD
ENDBRANCH  23  24
ENDBRANCH   5  23
TORSDOF 8
ENDMDL
MODEL 6
REMARK VINA RESULT:      -4.7      2.630      3.110
REMARK  Name = .\Catechins.pdb
REMARK  8 active torsions:
REMARK  status: ('A' for Active; 'I' for Inactive)
REMARK    1  A    between atoms: C3_3  and  O7_19
REMARK    2  A    between atoms: C4_4  and  O6_18
REMARK    3  A    between atoms: C6_6  and  C7_7
REMARK    4  A    between atoms: C8_8  and  O5_17
REMARK    5  A    between atoms: C9_9  and  O4_16
REMARK    6  A    between atoms: C10_10  and  O3_15
REMARK    7  A    between atoms: C11_11  and  C12_13
REMARK    8  A    between atoms: C12_13  and  O2_14
REMARK                            x       y       z     vdW  Elec       q    Type
REMARK                         _______ _______ _______ _____ _____    ______ ____
ROOT
ATOM      1  C7  UNL     1       4.621  64.434  40.859  0.00  0.00    +0.000 C 
ATOM      2  C8  UNL     1       3.284  63.653  40.760  0.00  0.00    +0.000 C 
ATOM      3  C9  UNL     1       2.926  63.335  39.282  0.00  0.00    +0.000 C 
ATOM      4  C10 UNL     1       3.485  64.422  38.348  0.00  0.00    +0.000 C 
ATOM      5  C11 UNL     1       5.033  64.573  38.553  0.00  0.00    +0.000 C 
ATOM      6  O1  UNL     1       5.480  64.050  39.801  0.00  0.00    +0.000 OA
ENDROOT
BRANCH   1  12
ATOM      7  C1  UNL     1       5.279  62.874  42.747  0.00  0.00    +0.000 A 
ATOM      8  C2  UNL     1       5.873  62.636  43.989  0.00  0.00    +0.000 A 
ATOM      9  C3  UNL     1       6.481  63.684  44.693  0.00  0.00    +0.000 A 
ATOM     10  C4  UNL     1       6.487  64.975  44.150  0.00  0.00    +0.000 A 
ATOM     11  C5  UNL     1       5.891  65.213  42.903  0.00  0.00    +0.000 A 
ATOM     12  C6  UNL     1       5.295  64.162  42.185  0.00  0.00    +0.000 A 
BRANCH  10  13
ATOM     13  O6  UNL     1       7.086  66.017  44.856  0.00  0.00    +0.000 OA
ATOM     14  H15 UNL     1       6.621  66.909  44.981  0.00  0.00    +0.000 HD
ENDBRANCH  10  13
BRANCH   9  15
ATOM     15  O7  UNL     1       7.076  63.451  45.931  0.00  0.00    +0.000 OA
ATOM     16  H16 UNL     1       7.661  64.147  46.378  0.00  0.00    +0.000 HD
ENDBRANCH   9  15
ENDBRANCH   1  12
BRANCH   4  17
ATOM     17  O3  UNL     1       3.168  64.123  37.010  0.00  0.00    +0.000 OA
ATOM     18  H12 UNL     1       3.381  64.929  36.472  0.00  0.00    +0.000 HD
ENDBRANCH   4  17
BRANCH   3  19
ATOM     19  O4  UNL     1       1.536  63.226  39.117  0.00  0.00    +0.000 OA
ATOM     20  H13 UNL     1       1.189  64.149  39.005  0.00  0.00    +0.000 HD
ENDBRANCH   3  19
BRANCH   2  21
ATOM     21  O5  UNL     1       2.253  64.362  41.406  0.00  0.00    +0.000 OA
ATOM     22  H14 UNL     1       2.257  65.288  41.052  0.00  0.00    +0.000 HD
ENDBRANCH   2  21
BRANCH   5  23
ATOM     23  C12 UNL     1       5.844  63.890  37.443  0.00  0.00    +0.000 C 
BRANCH  23  24
ATOM     24  O2  UNL     1       5.690  62.500  37.528  0.00  0.00    +0.000 OA
ATOM     25  H11 UNL     1       4.841  62.347  38.020  0.00  0.00    +0.000 HD
ENDBRANCH  23  24
ENDBRANCH   5  23
TORSDOF 8
ENDMDL
MODEL 7
REMARK VINA RESULT:      -4.7      1.739      6.354
REMARK  Name = .\Catechins.pdb
REMARK  8 active torsions:
REMARK  status: ('A' for Active; 'I' for Inactive)
REMARK    1  A    between atoms: C3_3  and  O7_19
REMARK    2  A    between atoms: C4_4  and  O6_18
REMARK    3  A    between atoms: C6_6  and  C7_7
REMARK    4  A    between atoms: C8_8  and  O5_17
REMARK    5  A    between atoms: C9_9  and  O4_16
REMARK    6  A    between atoms: C10_10  and  O3_15
REMARK    7  A    between atoms: C11_11  and  C12_13
REMARK    8  A    between atoms: C12_13  and  O2_14
REMARK                            x       y       z     vdW  Elec       q    Type
REMARK                         _______ _______ _______ _____ _____    ______ ____
ROOT
ATOM      1  C7  UNL     1       5.261  64.803  42.802  0.00  0.00    +0.000 C 
ATOM      2  C8  UNL     1       4.158  65.489  43.650  0.00  0.00    +0.000 C 
ATOM      3  C9  UNL     1       4.644  66.856  44.204  0.00  0.00    +0.000 C 
ATOM      4  C10 UNL     1       6.166  66.837  44.426  0.00  0.00    +0.000 C 
ATOM      5  C11 UNL     1       6.905  66.450  43.097  0.00  0.00    +0.000 C 
ATOM      6  O1  UNL     1       6.057  65.785  42.165  0.00  0.00    +0.000 OA
ENDROOT
BRANCH   1  12
ATOM      7  C1  UNL     1       4.990  62.538  41.692  0.00  0.00    +0.000 A 
ATOM      8  C2  UNL     1       4.439  61.715  40.706  0.00  0.00    +0.000 A 
ATOM      9  C3  UNL     1       3.540  62.241  39.768  0.00  0.00    +0.000 A 
ATOM     10  C4  UNL     1       3.199  63.599  39.817  0.00  0.00    +0.000 A 
ATOM     11  C5  UNL     1       3.752  64.424  40.807  0.00  0.00    +0.000 A 
ATOM     12  C6  UNL     1       4.640  63.898  41.761  0.00  0.00    +0.000 A 
BRANCH  10  13
ATOM     13  O6  UNL     1       2.311  64.120  38.878  0.00  0.00    +0.000 OA
ATOM     14  H15 UNL     1       2.587  64.859  38.241  0.00  0.00    +0.000 HD
ENDBRANCH  10  13
BRANCH   9  15
ATOM     15  O7  UNL     1       2.988  61.424  38.785  0.00  0.00    +0.000 OA
ATOM     16  H16 UNL     1       1.987  61.281  38.713  0.00  0.00    +0.000 HD
ENDBRANCH   9  15
ENDBRANCH   1  12
BRANCH   4  17
ATOM     17  O3  UNL     1       6.602  68.081  44.916  0.00  0.00    +0.000 OA
ATOM     18  H12 UNL     1       7.234  68.454  44.247  0.00  0.00    +0.000 HD
ENDBRANCH   4  17
BRANCH   3  19
ATOM     19  O4  UNL     1       3.986  67.173  45.404  0.00  0.00    +0.000 OA
ATOM     20  H13 UNL     1       4.562  67.826  45.880  0.00  0.00    +0.000 HD
ENDBRANCH   3  19
BRANCH   2  21
ATOM     21  O5  UNL     1       3.728  64.631  44.681  0.00  0.00    +0.000 OA
ATOM     22  H14 UNL     1       4.430  63.943  44.813  0.00  0.00    +0.000 HD
ENDBRANCH   2  21
BRANCH   5  23
ATOM     23  C12 UNL     1       7.516  67.666  42.386  0.00  0.00    +0.000 C 
BRANCH  23  24
ATOM     24  O2  UNL     1       6.520  68.618  42.132  0.00  0.00    +0.000 OA
ATOM     25  H11 UNL     1       5.960  68.243  41.403  0.00  0.00    +0.000 HD
ENDBRANCH  23  24
ENDBRANCH   5  23
TORSDOF 8
ENDMDL
MODEL 8
REMARK VINA RESULT:      -4.6      2.817      4.153
REMARK  Name = .\Catechins.pdb
REMARK  8 active torsions:
REMARK  status: ('A' for Active; 'I' for Inactive)
REMARK    1  A    between atoms: C3_3  and  O7_19
REMARK    2  A    between atoms: C4_4  and  O6_18
REMARK    3  A    between atoms: C6_6  and  C7_7
REMARK    4  A    between atoms: C8_8  and  O5_17
REMARK    5  A    between atoms: C9_9  and  O4_16
REMARK    6  A    between atoms: C10_10  and  O3_15
REMARK    7  A    between atoms: C11_11  and  C12_13
REMARK    8  A    between atoms: C12_13  and  O2_14
REMARK                            x       y       z     vdW  Elec       q    Type
REMARK                         _______ _______ _______ _____ _____    ______ ____
ROOT
ATOM      1  C7  UNL     1       4.849  63.200  41.616  0.00  0.00    +0.000 C 
ATOM      2  C8  UNL     1       3.320  63.144  41.876  0.00  0.00    +0.000 C 
ATOM      3  C9  UNL     1       2.519  63.325  40.557  0.00  0.00    +0.000 C 
ATOM      4  C10 UNL     1       3.302  64.204  39.568  0.00  0.00    +0.000 C 
ATOM      5  C11 UNL     1       4.725  63.596  39.307  0.00  0.00    +0.000 C 
ATOM      6  O1  UNL     1       5.136  62.690  40.327  0.00  0.00    +0.000 OA
ENDROOT
BRANCH   1  12
ATOM      7  C1  UNL     1       6.130  61.135  42.342  0.00  0.00    +0.000 A 
ATOM      8  C2  UNL     1       6.785  60.380  43.319  0.00  0.00    +0.000 A 
ATOM      9  C3  UNL     1       6.902  60.868  44.627  0.00  0.00    +0.000 A 
ATOM     10  C4  UNL     1       6.353  62.113  44.957  0.00  0.00    +0.000 A 
ATOM     11  C5  UNL     1       5.696  62.871  43.977  0.00  0.00    +0.000 A 
ATOM     12  C6  UNL     1       5.592  62.395  42.659  0.00  0.00    +0.000 A 
BRANCH  10  13
ATOM     13  O6  UNL     1       6.463  62.591  46.262  0.00  0.00    +0.000 OA
ATOM     14  H15 UNL     1       6.858  62.023  47.003  0.00  0.00    +0.000 HD
ENDBRANCH  10  13
BRANCH   9  15
ATOM     15  O7  UNL     1       7.555  60.118  45.603  0.00  0.00    +0.000 OA
ATOM     16  H16 UNL     1       7.715  60.485  46.535  0.00  0.00    +0.000 HD
ENDBRANCH   9  15
ENDBRANCH   1  12
BRANCH   4  17
ATOM     17  O3  UNL     1       2.577  64.354  38.371  0.00  0.00    +0.000 OA
ATOM     18  H12 UNL     1       3.212  64.205  37.623  0.00  0.00    +0.000 HD
ENDBRANCH   4  17
BRANCH   3  19
ATOM     19  O4  UNL     1       1.259  63.890  40.811  0.00  0.00    +0.000 OA
ATOM     20  H13 UNL     1       1.421  64.739  41.298  0.00  0.00    +0.000 HD
ENDBRANCH   3  19
BRANCH   2  21
ATOM     21  O5  UNL     1       2.952  64.096  42.845  0.00  0.00    +0.000 OA
ATOM     22  H14 UNL     1       3.434  63.875  43.683  0.00  0.00    +0.000 HD
ENDBRANCH   2  21
BRANCH   5  23
ATOM     23  C12 UNL     1       4.813  62.858  37.963  0.00  0.00    +0.000 C 
BRANCH  23  24
ATOM     24  O2  UNL     1       3.878  61.814  37.933  0.00  0.00    +0.000 OA
ATOM     25  H11 UNL     1       3.608  61.658  38.875  0.00  0.00    +0.000 HD
ENDBRANCH  23  24
ENDBRANCH   5  23
TORSDOF 8
ENDMDL
MODEL 9
REMARK VINA RESULT:      -4.6      2.870      4.352
REMARK  Name = .\Catechins.pdb
REMARK  8 active torsions:
REMARK  status: ('A' for Active; 'I' for Inactive)
REMARK    1  A    between atoms: C3_3  and  O7_19
REMARK    2  A    between atoms: C4_4  and  O6_18
REMARK    3  A    between atoms: C6_6  and  C7_7
REMARK    4  A    between atoms: C8_8  and  O5_17
REMARK    5  A    between atoms: C9_9  and  O4_16
REMARK    6  A    between atoms: C10_10  and  O3_15
REMARK    7  A    between atoms: C11_11  and  C12_13
REMARK    8  A    between atoms: C12_13  and  O2_14
REMARK                            x       y       z     vdW  Elec       q    Type
REMARK                         _______ _______ _______ _____ _____    ______ ____
ROOT
ATOM      1  C7  UNL     1       3.885  63.574  40.067  0.00  0.00    +0.000 C 
ATOM      2  C8  UNL     1       4.516  62.552  39.085  0.00  0.00    +0.000 C 
ATOM      3  C9  UNL     1       4.483  63.082  37.624  0.00  0.00    +0.000 C 
ATOM      4  C10 UNL     1       3.273  64.007  37.415  0.00  0.00    +0.000 C 
ATOM      5  C11 UNL     1       3.295  65.178  38.460  0.00  0.00    +0.000 C 
ATOM      6  O1  UNL     1       4.105  64.891  39.596  0.00  0.00    +0.000 OA
ENDROOT
BRANCH   1  12
ATOM      7  C1  UNL     1       5.564  62.545  41.666  0.00  0.00    +0.000 A 
ATOM      8  C2  UNL     1       6.092  62.380  42.949  0.00  0.00    +0.000 A 
ATOM      9  C3  UNL     1       5.543  63.079  44.033  0.00  0.00    +0.000 A 
ATOM     10  C4  UNL     1       4.457  63.939  43.828  0.00  0.00    +0.000 A 
ATOM     11  C5  UNL     1       3.927  64.104  42.540  0.00  0.00    +0.000 A 
ATOM     12  C6  UNL     1       4.485  63.420  41.447  0.00  0.00    +0.000 A 
BRANCH  10  13
ATOM     13  O6  UNL     1       3.908  64.626  44.910  0.00  0.00    +0.000 OA
ATOM     14  H15 UNL     1       4.239  65.545  45.177  0.00  0.00    +0.000 HD
ENDBRANCH  10  13
BRANCH   9  15
ATOM     15  O7  UNL     1       6.067  62.918  45.313  0.00  0.00    +0.000 OA
ATOM     16  H16 UNL     1       6.013  63.657  46.006  0.00  0.00    +0.000 HD
ENDBRANCH   9  15
ENDBRANCH   1  12
BRANCH   4  17
ATOM     17  O3  UNL     1       3.255  64.494  36.095  0.00  0.00    +0.000 OA
ATOM     18  H12 UNL     1       2.549  63.994  35.609  0.00  0.00    +0.000 HD
ENDBRANCH   4  17
BRANCH   3  19
ATOM     19  O4  UNL     1       4.442  62.019  36.707  0.00  0.00    +0.000 OA
ATOM     20  H13 UNL     1       5.047  61.316  37.060  0.00  0.00    +0.000 HD
ENDBRANCH   3  19
BRANCH   2  21
ATOM     21  O5  UNL     1       3.878  61.302  39.200  0.00  0.00    +0.000 OA
ATOM     22  H14 UNL     1       3.621  61.010  38.288  0.00  0.00    +0.000 HD
ENDBRANCH   2  21
BRANCH   5  23
ATOM     23  C12 UNL     1       3.791  66.499  37.855  0.00  0.00    +0.000 C 
BRANCH  23  24
ATOM     24  O2  UNL     1       5.150  66.392  37.529  0.00  0.00    +0.000 OA
ATOM     25  H11 UNL     1       5.650  66.741  38.312  0.00  0.00    +0.000 HD
ENDBRANCH  23  24
ENDBRANCH   5  23
TORSDOF 8
ENDMDL
