MODEL 1
REMARK VINA RESULT:      -7.6      0.000      0.000
REMARK  Name = .\Catechins.pdb
REMARK  8 active torsions:
REMARK  status: ('A' for Active; 'I' for Inactive)
REMARK    1  A    between atoms: C3_3  and  O7_19
REMARK    2  A    between atoms: C4_4  and  O6_18
REMARK    3  A    between atoms: C6_6  and  C7_7
REMARK    4  A    between atoms: C8_8  and  O5_17
REMARK    5  A    between atoms: C9_9  and  O4_16
REMARK    6  A    between atoms: C10_10  and  O3_15
REMARK    7  A    between atoms: C11_11  and  C12_13
REMARK    8  A    between atoms: C12_13  and  O2_14
REMARK                            x       y       z     vdW  Elec       q    Type
REMARK                         _______ _______ _______ _____ _____    ______ ____
ROOT
ATOM      1  C7  UNL     1     -11.107  49.561  12.890  0.00  0.00    +0.000 C 
ATOM      2  C8  UNL     1      -9.611  49.830  13.201  0.00  0.00    +0.000 C 
ATOM      3  C9  UNL     1      -9.141  49.023  14.443  0.00  0.00    +0.000 C 
ATOM      4  C10 UNL     1     -10.311  48.805  15.417  0.00  0.00    +0.000 C 
ATOM      5  C11 UNL     1     -11.508  48.104  14.684  0.00  0.00    +0.000 C 
ATOM      6  O1  UNL     1     -11.445  48.239  13.267  0.00  0.00    +0.000 OA
ENDROOT
BRANCH   1  12
ATOM      7  C1  UNL     1     -10.443  49.348  10.451  0.00  0.00    +0.000 A 
ATOM      8  C2  UNL     1     -10.687  49.560   9.091  0.00  0.00    +0.000 A 
ATOM      9  C3  UNL     1     -11.867  50.192   8.677  0.00  0.00    +0.000 A 
ATOM     10  C4  UNL     1     -12.801  50.617   9.630  0.00  0.00    +0.000 A 
ATOM     11  C5  UNL     1     -12.555  50.403  10.994  0.00  0.00    +0.000 A 
ATOM     12  C6  UNL     1     -11.382  49.754  11.415  0.00  0.00    +0.000 A 
BRANCH  10  13
ATOM     13  O6  UNL     1     -13.970  51.253   9.214  0.00  0.00    +0.000 OA
ATOM     14  H15 UNL     1     -14.049  51.667   8.293  0.00  0.00    +0.000 HD
ENDBRANCH  10  13
BRANCH   9  15
ATOM     15  O7  UNL     1     -12.114  50.405   7.323  0.00  0.00    +0.000 OA
ATOM     16  H16 UNL     1     -11.565  51.061   6.779  0.00  0.00    +0.000 HD
ENDBRANCH   9  15
ENDBRANCH   1  12
BRANCH   4  17
ATOM     17  O3  UNL     1      -9.882  48.063  16.533  0.00  0.00    +0.000 OA
ATOM     18  H12 UNL     1     -10.028  47.105  16.321  0.00  0.00    +0.000 HD
ENDBRANCH   4  17
BRANCH   3  19
ATOM     19  O4  UNL     1      -8.085  49.679  15.096  0.00  0.00    +0.000 OA
ATOM     20  H13 UNL     1      -8.180  50.645  14.889  0.00  0.00    +0.000 HD
ENDBRANCH   3  19
BRANCH   2  21
ATOM     21  O5  UNL     1      -9.385  51.211  13.361  0.00  0.00    +0.000 OA
ATOM     22  H14 UNL     1     -10.175  51.690  12.998  0.00  0.00    +0.000 HD
ENDBRANCH   2  21
BRANCH   5  23
ATOM     23  C12 UNL     1     -11.600  46.605  15.007  0.00  0.00    +0.000 C 
BRANCH  23  24
ATOM     24  O2  UNL     1     -12.382  45.959  14.040  0.00  0.00    +0.000 OA
ATOM     25  H11 UNL     1     -13.327  46.144  14.280  0.00  0.00    +0.000 HD
ENDBRANCH  23  24
ENDBRANCH   5  23
TORSDOF 8
ENDMDL
MODEL 2
REMARK VINA RESULT:      -7.6      2.212      6.775
REMARK  Name = .\Catechins.pdb
REMARK  8 active torsions:
REMARK  status: ('A' for Active; 'I' for Inactive)
REMARK    1  A    between atoms: C3_3  and  O7_19
REMARK    2  A    between atoms: C4_4  and  O6_18
REMARK    3  A    between atoms: C6_6  and  C7_7
REMARK    4  A    between atoms: C8_8  and  O5_17
REMARK    5  A    between atoms: C9_9  and  O4_16
REMARK    6  A    between atoms: C10_10  and  O3_15
REMARK    7  A    between atoms: C11_11  and  C12_13
REMARK    8  A    between atoms: C12_13  and  O2_14
REMARK                            x       y       z     vdW  Elec       q    Type
REMARK                         _______ _______ _______ _____ _____    ______ ____
ROOT
ATOM      1  C7  UNL     1     -12.779  50.964   9.559  0.00  0.00    +0.000 C 
ATOM      2  C8  UNL     1     -12.074  51.427   8.257  0.00  0.00    +0.000 C 
ATOM      3  C9  UNL     1     -12.801  52.646   7.626  0.00  0.00    +0.000 C 
ATOM      4  C10 UNL     1     -14.304  52.603   7.952  0.00  0.00    +0.000 C 
ATOM      5  C11 UNL     1     -14.523  52.532   9.504  0.00  0.00    +0.000 C 
ATOM      6  O1  UNL     1     -13.370  52.076  10.206  0.00  0.00    +0.000 OA
ENDROOT
BRANCH   1  12
ATOM      7  C1  UNL     1     -10.955  49.266  10.032  0.00  0.00    +0.000 A 
ATOM      8  C2  UNL     1     -10.065  48.634  10.905  0.00  0.00    +0.000 A 
ATOM      9  C3  UNL     1     -10.004  49.021  12.251  0.00  0.00    +0.000 A 
ATOM     10  C4  UNL     1     -10.842  50.039  12.722  0.00  0.00    +0.000 A 
ATOM     11  C5  UNL     1     -11.735  50.673  11.845  0.00  0.00    +0.000 A 
ATOM     12  C6  UNL     1     -11.788  50.302  10.490  0.00  0.00    +0.000 A 
BRANCH  10  13
ATOM     13  O6  UNL     1     -10.784  50.415  14.063  0.00  0.00    +0.000 OA
ATOM     14  H15 UNL     1     -10.869  49.733  14.808  0.00  0.00    +0.000 HD
ENDBRANCH  10  13
BRANCH   9  15
ATOM     15  O7  UNL     1      -9.118  48.394  13.124  0.00  0.00    +0.000 OA
ATOM     16  H16 UNL     1      -8.355  47.820  12.785  0.00  0.00    +0.000 HD
ENDBRANCH   9  15
ENDBRANCH   1  12
BRANCH   4  17
ATOM     17  O3  UNL     1     -14.955  53.716   7.389  0.00  0.00    +0.000 OA
ATOM     18  H12 UNL     1     -15.892  53.443   7.203  0.00  0.00    +0.000 HD
ENDBRANCH   4  17
BRANCH   3  19
ATOM     19  O4  UNL     1     -12.610  52.678   6.236  0.00  0.00    +0.000 OA
ATOM     20  H13 UNL     1     -12.784  53.611   5.946  0.00  0.00    +0.000 HD
ENDBRANCH   3  19
BRANCH   2  21
ATOM     21  O5  UNL     1     -11.968  50.355   7.350  0.00  0.00    +0.000 OA
ATOM     22  H14 UNL     1     -12.500  49.601   7.711  0.00  0.00    +0.000 HD
ENDBRANCH   2  21
BRANCH   5  23
ATOM     23  C12 UNL     1     -14.930  53.886  10.105  0.00  0.00    +0.000 C 
BRANCH  23  24
ATOM     24  O2  UNL     1     -15.811  53.685  11.176  0.00  0.00    +0.000 OA
ATOM     25  H11 UNL     1     -16.710  53.563  10.774  0.00  0.00    +0.000 HD
ENDBRANCH  23  24
ENDBRANCH   5  23
TORSDOF 8
ENDMDL
MODEL 3
REMARK VINA RESULT:      -7.4      2.489      7.084
REMARK  Name = .\Catechins.pdb
REMARK  8 active torsions:
REMARK  status: ('A' for Active; 'I' for Inactive)
REMARK    1  A    between atoms: C3_3  and  O7_19
REMARK    2  A    between atoms: C4_4  and  O6_18
REMARK    3  A    between atoms: C6_6  and  C7_7
REMARK    4  A    between atoms: C8_8  and  O5_17
REMARK    5  A    between atoms: C9_9  and  O4_16
REMARK    6  A    between atoms: C10_10  and  O3_15
REMARK    7  A    between atoms: C11_11  and  C12_13
REMARK    8  A    between atoms: C12_13  and  O2_14
REMARK                            x       y       z     vdW  Elec       q    Type
REMARK                         _______ _______ _______ _____ _____    ______ ____
ROOT
ATOM      1  C7  UNL     1     -12.781  51.377   9.432  0.00  0.00    +0.000 C 
ATOM      2  C8  UNL     1     -12.010  51.726   8.132  0.00  0.00    +0.000 C 
ATOM      3  C9  UNL     1     -12.566  53.021   7.479  0.00  0.00    +0.000 C 
ATOM      4  C10 UNL     1     -14.065  53.179   7.789  0.00  0.00    +0.000 C 
ATOM      5  C11 UNL     1     -14.305  53.158   9.339  0.00  0.00    +0.000 C 
ATOM      6  O1  UNL     1     -13.228  52.565  10.059  0.00  0.00    +0.000 OA
ENDROOT
BRANCH   1  12
ATOM      7  C1  UNL     1     -11.584  51.118  11.654  0.00  0.00    +0.000 A 
ATOM      8  C2  UNL     1     -10.735  50.416  12.514  0.00  0.00    +0.000 A 
ATOM      9  C3  UNL     1     -10.174  49.197  12.110  0.00  0.00    +0.000 A 
ATOM     10  C4  UNL     1     -10.461  48.685  10.839  0.00  0.00    +0.000 A 
ATOM     11  C5  UNL     1     -11.314  49.390   9.976  0.00  0.00    +0.000 A 
ATOM     12  C6  UNL     1     -11.893  50.604  10.382  0.00  0.00    +0.000 A 
BRANCH  10  13
ATOM     13  O6  UNL     1      -9.895  47.476  10.439  0.00  0.00    +0.000 OA
ATOM     14  H15 UNL     1      -9.428  47.380   9.544  0.00  0.00    +0.000 HD
ENDBRANCH  10  13
BRANCH   9  15
ATOM     15  O7  UNL     1      -9.328  48.494  12.965  0.00  0.00    +0.000 OA
ATOM     16  H16 UNL     1      -8.650  47.828  12.612  0.00  0.00    +0.000 HD
ENDBRANCH   9  15
ENDBRANCH   1  12
BRANCH   4  17
ATOM     17  O3  UNL     1     -14.560  54.359   7.205  0.00  0.00    +0.000 OA
ATOM     18  H12 UNL     1     -15.476  54.161   6.876  0.00  0.00    +0.000 HD
ENDBRANCH   4  17
BRANCH   3  19
ATOM     19  O4  UNL     1     -12.360  53.009   6.090  0.00  0.00    +0.000 OA
ATOM     20  H13 UNL     1     -11.438  53.342   5.936  0.00  0.00    +0.000 HD
ENDBRANCH   3  19
BRANCH   2  21
ATOM     21  O5  UNL     1     -12.036  50.638   7.239  0.00  0.00    +0.000 OA
ATOM     22  H14 UNL     1     -12.939  50.230   7.288  0.00  0.00    +0.000 HD
ENDBRANCH   2  21
BRANCH   5  23
ATOM     23  C12 UNL     1     -14.537  54.562   9.919  0.00  0.00    +0.000 C 
BRANCH  23  24
ATOM     24  O2  UNL     1     -15.878  54.929   9.747  0.00  0.00    +0.000 OA
ATOM     25  H11 UNL     1     -15.878  55.682   9.100  0.00  0.00    +0.000 HD
ENDBRANCH  23  24
ENDBRANCH   5  23
TORSDOF 8
ENDMDL
MODEL 4
REMARK VINA RESULT:      -7.2      3.127      7.571
REMARK  Name = .\Catechins.pdb
REMARK  8 active torsions:
REMARK  status: ('A' for Active; 'I' for Inactive)
REMARK    1  A    between atoms: C3_3  and  O7_19
REMARK    2  A    between atoms: C4_4  and  O6_18
REMARK    3  A    between atoms: C6_6  and  C7_7
REMARK    4  A    between atoms: C8_8  and  O5_17
REMARK    5  A    between atoms: C9_9  and  O4_16
REMARK    6  A    between atoms: C10_10  and  O3_15
REMARK    7  A    between atoms: C11_11  and  C12_13
REMARK    8  A    between atoms: C12_13  and  O2_14
REMARK                            x       y       z     vdW  Elec       q    Type
REMARK                         _______ _______ _______ _____ _____    ______ ____
ROOT
ATOM      1  C7  UNL     1     -12.489  52.568   8.510  0.00  0.00    +0.000 C 
ATOM      2  C8  UNL     1     -13.745  52.934   9.344  0.00  0.00    +0.000 C 
ATOM      3  C9  UNL     1     -14.774  53.728   8.493  0.00  0.00    +0.000 C 
ATOM      4  C10 UNL     1     -14.055  54.552   7.412  0.00  0.00    +0.000 C 
ATOM      5  C11 UNL     1     -13.158  53.620   6.523  0.00  0.00    +0.000 C 
ATOM      6  O1  UNL     1     -12.851  52.381   7.154  0.00  0.00    +0.000 OA
ENDROOT
BRANCH   1  12
ATOM      7  C1  UNL     1     -11.130  50.451   8.192  0.00  0.00    +0.000 A 
ATOM      8  C2  UNL     1     -10.570  49.268   8.684  0.00  0.00    +0.000 A 
ATOM      9  C3  UNL     1     -10.731  48.919  10.032  0.00  0.00    +0.000 A 
ATOM     10  C4  UNL     1     -11.461  49.756  10.886  0.00  0.00    +0.000 A 
ATOM     11  C5  UNL     1     -12.023  50.942  10.391  0.00  0.00    +0.000 A 
ATOM     12  C6  UNL     1     -11.849  51.306   9.045  0.00  0.00    +0.000 A 
BRANCH  10  13
ATOM     13  O6  UNL     1     -11.626  49.401  12.223  0.00  0.00    +0.000 OA
ATOM     14  H15 UNL     1     -12.134  49.993  12.870  0.00  0.00    +0.000 HD
ENDBRANCH  10  13
BRANCH   9  15
ATOM     15  O7  UNL     1     -10.174  47.742  10.527  0.00  0.00    +0.000 OA
ATOM     16  H16 UNL     1     -10.396  46.839  10.124  0.00  0.00    +0.000 HD
ENDBRANCH   9  15
ENDBRANCH   1  12
BRANCH   4  17
ATOM     17  O3  UNL     1     -14.992  55.260   6.636  0.00  0.00    +0.000 OA
ATOM     18  H12 UNL     1     -15.028  56.185   6.993  0.00  0.00    +0.000 HD
ENDBRANCH   4  17
BRANCH   3  19
ATOM     19  O4  UNL     1     -15.550  54.571   9.305  0.00  0.00    +0.000 OA
ATOM     20  H13 UNL     1     -15.249  55.498   9.121  0.00  0.00    +0.000 HD
ENDBRANCH   3  19
BRANCH   2  21
ATOM     21  O5  UNL     1     -13.375  53.638  10.506  0.00  0.00    +0.000 OA
ATOM     22  H14 UNL     1     -12.991  52.984  11.145  0.00  0.00    +0.000 HD
ENDBRANCH   2  21
BRANCH   5  23
ATOM     23  C12 UNL     1     -13.800  53.306   5.164  0.00  0.00    +0.000 C 
BRANCH  23  24
ATOM     24  O2  UNL     1     -15.119  52.873   5.351  0.00  0.00    +0.000 OA
ATOM     25  H11 UNL     1     -15.588  53.610   5.822  0.00  0.00    +0.000 HD
ENDBRANCH  23  24
ENDBRANCH   5  23
TORSDOF 8
ENDMDL
MODEL 5
REMARK VINA RESULT:      -7.2      5.561     10.216
REMARK  Name = .\Catechins.pdb
REMARK  8 active torsions:
REMARK  status: ('A' for Active; 'I' for Inactive)
REMARK    1  A    between atoms: C3_3  and  O7_19
REMARK    2  A    between atoms: C4_4  and  O6_18
REMARK    3  A    between atoms: C6_6  and  C7_7
REMARK    4  A    between atoms: C8_8  and  O5_17
REMARK    5  A    between atoms: C9_9  and  O4_16
REMARK    6  A    between atoms: C10_10  and  O3_15
REMARK    7  A    between atoms: C11_11  and  C12_13
REMARK    8  A    between atoms: C12_13  and  O2_14
REMARK                            x       y       z     vdW  Elec       q    Type
REMARK                         _______ _______ _______ _____ _____    ______ ____
ROOT
ATOM      1  C7  UNL     1     -14.767  54.500   6.865  0.00  0.00    +0.000 C 
ATOM      2  C8  UNL     1     -14.568  54.196   5.357  0.00  0.00    +0.000 C 
ATOM      3  C9  UNL     1     -15.010  55.398   4.478  0.00  0.00    +0.000 C 
ATOM      4  C10 UNL     1     -16.140  56.182   5.167  0.00  0.00    +0.000 C 
ATOM      5  C11 UNL     1     -15.689  56.641   6.598  0.00  0.00    +0.000 C 
ATOM      6  O1  UNL     1     -14.592  55.885   7.103  0.00  0.00    +0.000 OA
ENDROOT
BRANCH   1  12
ATOM      7  C1  UNL     1     -13.254  54.251   8.886  0.00  0.00    +0.000 A 
ATOM      8  C2  UNL     1     -12.317  53.533   9.633  0.00  0.00    +0.000 A 
ATOM      9  C3  UNL     1     -11.883  52.274   9.198  0.00  0.00    +0.000 A 
ATOM     10  C4  UNL     1     -12.387  51.737   8.007  0.00  0.00    +0.000 A 
ATOM     11  C5  UNL     1     -13.329  52.457   7.258  0.00  0.00    +0.000 A 
ATOM     12  C6  UNL     1     -13.780  53.713   7.698  0.00  0.00    +0.000 A 
BRANCH  10  13
ATOM     13  O6  UNL     1     -11.947  50.487   7.574  0.00  0.00    +0.000 OA
ATOM     14  H15 UNL     1     -12.159  49.642   8.091  0.00  0.00    +0.000 HD
ENDBRANCH  10  13
BRANCH   9  15
ATOM     15  O7  UNL     1     -10.949  51.555   9.941  0.00  0.00    +0.000 OA
ATOM     16  H16 UNL     1     -10.162  52.011  10.389  0.00  0.00    +0.000 HD
ENDBRANCH   9  15
ENDBRANCH   1  12
BRANCH   4  17
ATOM     17  O3  UNL     1     -16.529  57.275   4.372  0.00  0.00    +0.000 OA
ATOM     18  H12 UNL     1     -17.513  57.367   4.461  0.00  0.00    +0.000 HD
ENDBRANCH   4  17
BRANCH   3  19
ATOM     19  O4  UNL     1     -15.430  54.962   3.210  0.00  0.00    +0.000 OA
ATOM     20  H13 UNL     1     -16.293  55.416   3.026  0.00  0.00    +0.000 HD
ENDBRANCH   3  19
BRANCH   2  21
ATOM     21  O5  UNL     1     -15.243  53.013   5.002  0.00  0.00    +0.000 OA
ATOM     22  H14 UNL     1     -16.210  53.154   5.175  0.00  0.00    +0.000 HD
ENDBRANCH   2  21
BRANCH   5  23
ATOM     23  C12 UNL     1     -15.295  58.125   6.644  0.00  0.00    +0.000 C 
BRANCH  23  24
ATOM     24  O2  UNL     1     -14.007  58.290   6.118  0.00  0.00    +0.000 OA
ATOM     25  H11 UNL     1     -13.404  57.744   6.688  0.00  0.00    +0.000 HD
ENDBRANCH  23  24
ENDBRANCH   5  23
TORSDOF 8
ENDMDL
MODEL 6
REMARK VINA RESULT:      -7.0      1.584      6.402
REMARK  Name = .\Catechins.pdb
REMARK  8 active torsions:
REMARK  status: ('A' for Active; 'I' for Inactive)
REMARK    1  A    between atoms: C3_3  and  O7_19
REMARK    2  A    between atoms: C4_4  and  O6_18
REMARK    3  A    between atoms: C6_6  and  C7_7
REMARK    4  A    between atoms: C8_8  and  O5_17
REMARK    5  A    between atoms: C9_9  and  O4_16
REMARK    6  A    between atoms: C10_10  and  O3_15
REMARK    7  A    between atoms: C11_11  and  C12_13
REMARK    8  A    between atoms: C12_13  and  O2_14
REMARK                            x       y       z     vdW  Elec       q    Type
REMARK                         _______ _______ _______ _____ _____    ______ ____
ROOT
ATOM      1  C7  UNL     1     -11.907  50.070  10.940  0.00  0.00    +0.000 C 
ATOM      2  C8  UNL     1     -10.801  50.137   9.855  0.00  0.00    +0.000 C 
ATOM      3  C9  UNL     1     -11.222  51.058   8.677  0.00  0.00    +0.000 C 
ATOM      4  C10 UNL     1     -12.751  51.043   8.504  0.00  0.00    +0.000 C 
ATOM      5  C11 UNL     1     -13.455  51.451   9.845  0.00  0.00    +0.000 C 
ATOM      6  O1  UNL     1     -12.613  51.298  10.983  0.00  0.00    +0.000 OA
ENDROOT
BRANCH   1  12
ATOM      7  C1  UNL     1     -10.589  50.781  12.987  0.00  0.00    +0.000 A 
ATOM      8  C2  UNL     1     -10.001  50.502  14.224  0.00  0.00    +0.000 A 
ATOM      9  C3  UNL     1     -10.107  49.221  14.782  0.00  0.00    +0.000 A 
ATOM     10  C4  UNL     1     -10.800  48.217  14.094  0.00  0.00    +0.000 A 
ATOM     11  C5  UNL     1     -11.389  48.498  12.853  0.00  0.00    +0.000 A 
ATOM     12  C6  UNL     1     -11.301  49.785  12.296  0.00  0.00    +0.000 A 
BRANCH  10  13
ATOM     13  O6  UNL     1     -10.896  46.942  14.648  0.00  0.00    +0.000 OA
ATOM     14  H15 UNL     1     -11.193  46.801  15.607  0.00  0.00    +0.000 HD
ENDBRANCH  10  13
BRANCH   9  15
ATOM     15  O7  UNL     1      -9.524  48.939  16.015  0.00  0.00    +0.000 OA
ATOM     16  H16 UNL     1      -9.616  48.028  16.450  0.00  0.00    +0.000 HD
ENDBRANCH   9  15
ENDBRANCH   1  12
BRANCH   4  17
ATOM     17  O3  UNL     1     -13.128  51.888   7.443  0.00  0.00    +0.000 OA
ATOM     18  H12 UNL     1     -12.482  51.736   6.705  0.00  0.00    +0.000 HD
ENDBRANCH   4  17
BRANCH   3  19
ATOM     19  O4  UNL     1     -10.598  50.662   7.484  0.00  0.00    +0.000 OA
ATOM     20  H13 UNL     1      -9.632  50.561   7.689  0.00  0.00    +0.000 HD
ENDBRANCH   3  19
BRANCH   2  21
ATOM     21  O5  UNL     1     -10.470  48.842   9.412  0.00  0.00    +0.000 OA
ATOM     22  H14 UNL     1      -9.794  48.934   8.692  0.00  0.00    +0.000 HD
ENDBRANCH   2  21
BRANCH   5  23
ATOM     23  C12 UNL     1     -13.958  52.902   9.828  0.00  0.00    +0.000 C 
BRANCH  23  24
ATOM     24  O2  UNL     1     -15.203  52.966   9.187  0.00  0.00    +0.000 OA
ATOM     25  H11 UNL     1     -15.076  53.554   8.398  0.00  0.00    +0.000 HD
ENDBRANCH  23  24
ENDBRANCH   5  23
TORSDOF 8
ENDMDL
MODEL 7
REMARK VINA RESULT:      -6.7      2.495      6.985
REMARK  Name = .\Catechins.pdb
REMARK  8 active torsions:
REMARK  status: ('A' for Active; 'I' for Inactive)
REMARK    1  A    between atoms: C3_3  and  O7_19
REMARK    2  A    between atoms: C4_4  and  O6_18
REMARK    3  A    between atoms: C6_6  and  C7_7
REMARK    4  A    between atoms: C8_8  and  O5_17
REMARK    5  A    between atoms: C9_9  and  O4_16
REMARK    6  A    between atoms: C10_10  and  O3_15
REMARK    7  A    between atoms: C11_11  and  C12_13
REMARK    8  A    between atoms: C12_13  and  O2_14
REMARK                            x       y       z     vdW  Elec       q    Type
REMARK                         _______ _______ _______ _____ _____    ______ ____
ROOT
ATOM      1  C7  UNL     1     -11.951  52.235  10.457  0.00  0.00    +0.000 C 
ATOM      2  C8  UNL     1     -13.341  51.833   9.898  0.00  0.00    +0.000 C 
ATOM      3  C9  UNL     1     -13.678  52.626   8.605  0.00  0.00    +0.000 C 
ATOM      4  C10 UNL     1     -13.008  54.010   8.633  0.00  0.00    +0.000 C 
ATOM      5  C11 UNL     1     -11.460  53.861   8.839  0.00  0.00    +0.000 C 
ATOM      6  O1  UNL     1     -11.092  52.601   9.392  0.00  0.00    +0.000 OA
ENDROOT
BRANCH   1  12
ATOM      7  C1  UNL     1     -11.057  51.217  12.602  0.00  0.00    +0.000 A 
ATOM      8  C2  UNL     1     -10.462  50.166  13.304  0.00  0.00    +0.000 A 
ATOM      9  C3  UNL     1     -10.130  48.975  12.643  0.00  0.00    +0.000 A 
ATOM     10  C4  UNL     1     -10.392  48.842  11.274  0.00  0.00    +0.000 A 
ATOM     11  C5  UNL     1     -10.990  49.898  10.570  0.00  0.00    +0.000 A 
ATOM     12  C6  UNL     1     -11.341  51.087  11.231  0.00  0.00    +0.000 A 
BRANCH  10  13
ATOM     13  O6  UNL     1     -10.053  47.659  10.619  0.00  0.00    +0.000 OA
ATOM     14  H15 UNL     1      -9.302  47.626   9.940  0.00  0.00    +0.000 HD
ENDBRANCH  10  13
BRANCH   9  15
ATOM     15  O7  UNL     1      -9.538  47.924  13.340  0.00  0.00    +0.000 OA
ATOM     16  H16 UNL     1      -9.550  46.976  12.982  0.00  0.00    +0.000 HD
ENDBRANCH   9  15
ENDBRANCH   1  12
BRANCH   4  17
ATOM     17  O3  UNL     1     -13.306  54.719   7.455  0.00  0.00    +0.000 OA
ATOM     18  H12 UNL     1     -13.645  55.611   7.728  0.00  0.00    +0.000 HD
ENDBRANCH   4  17
BRANCH   3  19
ATOM     19  O4  UNL     1     -15.067  52.766   8.452  0.00  0.00    +0.000 OA
ATOM     20  H13 UNL     1     -15.224  53.017   7.505  0.00  0.00    +0.000 HD
ENDBRANCH   3  19
BRANCH   2  21
ATOM     21  O5  UNL     1     -14.332  51.997  10.884  0.00  0.00    +0.000 OA
ATOM     22  H14 UNL     1     -14.206  51.283  11.560  0.00  0.00    +0.000 HD
ENDBRANCH   2  21
BRANCH   5  23
ATOM     23  C12 UNL     1     -10.670  54.047   7.535  0.00  0.00    +0.000 C 
BRANCH  23  24
ATOM     24  O2  UNL     1     -11.086  53.100   6.590  0.00  0.00    +0.000 OA
ATOM     25  H11 UNL     1     -10.897  52.211   6.988  0.00  0.00    +0.000 HD
ENDBRANCH  23  24
ENDBRANCH   5  23
TORSDOF 8
ENDMDL
MODEL 8
REMARK VINA RESULT:      -6.7      5.961      8.840
REMARK  Name = .\Catechins.pdb
REMARK  8 active torsions:
REMARK  status: ('A' for Active; 'I' for Inactive)
REMARK    1  A    between atoms: C3_3  and  O7_19
REMARK    2  A    between atoms: C4_4  and  O6_18
REMARK    3  A    between atoms: C6_6  and  C7_7
REMARK    4  A    between atoms: C8_8  and  O5_17
REMARK    5  A    between atoms: C9_9  and  O4_16
REMARK    6  A    between atoms: C10_10  and  O3_15
REMARK    7  A    between atoms: C11_11  and  C12_13
REMARK    8  A    between atoms: C12_13  and  O2_14
REMARK                            x       y       z     vdW  Elec       q    Type
REMARK                         _______ _______ _______ _____ _____    ______ ____
ROOT
ATOM      1  C7  UNL     1     -14.262  54.139   7.119  0.00  0.00    +0.000 C 
ATOM      2  C8  UNL     1     -14.257  54.760   8.541  0.00  0.00    +0.000 C 
ATOM      3  C9  UNL     1     -12.955  54.399   9.308  0.00  0.00    +0.000 C 
ATOM      4  C10 UNL     1     -12.420  53.033   8.845  0.00  0.00    +0.000 C 
ATOM      5  C11 UNL     1     -12.201  53.032   7.292  0.00  0.00    +0.000 C 
ATOM      6  O1  UNL     1     -12.937  54.055   6.627  0.00  0.00    +0.000 OA
ENDROOT
BRANCH   1  12
ATOM      7  C1  UNL     1     -15.642  54.416   5.009  0.00  0.00    +0.000 A 
ATOM      8  C2  UNL     1     -16.387  55.203   4.127  0.00  0.00    +0.000 A 
ATOM      9  C3  UNL     1     -16.593  56.563   4.397  0.00  0.00    +0.000 A 
ATOM     10  C4  UNL     1     -16.044  57.134   5.551  0.00  0.00    +0.000 A 
ATOM     11  C5  UNL     1     -15.296  56.344   6.436  0.00  0.00    +0.000 A 
ATOM     12  C6  UNL     1     -15.101  54.976   6.180  0.00  0.00    +0.000 A 
BRANCH  10  13
ATOM     13  O6  UNL     1     -16.243  58.489   5.811  0.00  0.00    +0.000 OA
ATOM     14  H15 UNL     1     -15.884  58.926   6.652  0.00  0.00    +0.000 HD
ENDBRANCH  10  13
BRANCH   9  15
ATOM     15  O7  UNL     1     -17.336  57.350   3.520  0.00  0.00    +0.000 OA
ATOM     16  H16 UNL     1     -17.929  56.938   2.809  0.00  0.00    +0.000 HD
ENDBRANCH   9  15
ENDBRANCH   1  12
BRANCH   4  17
ATOM     17  O3  UNL     1     -11.235  52.716   9.535  0.00  0.00    +0.000 OA
ATOM     18  H12 UNL     1     -10.499  52.721   8.869  0.00  0.00    +0.000 HD
ENDBRANCH   4  17
BRANCH   3  19
ATOM     19  O4  UNL     1     -13.179  54.384  10.694  0.00  0.00    +0.000 OA
ATOM     20  H13 UNL     1     -13.323  53.436  10.949  0.00  0.00    +0.000 HD
ENDBRANCH   3  19
BRANCH   2  21
ATOM     21  O5  UNL     1     -15.408  54.368   9.251  0.00  0.00    +0.000 OA
ATOM     22  H14 UNL     1     -15.645  53.451   8.958  0.00  0.00    +0.000 HD
ENDBRANCH   2  21
BRANCH   5  23
ATOM     23  C12 UNL     1     -10.723  53.194   6.905  0.00  0.00    +0.000 C 
BRANCH  23  24
ATOM     24  O2  UNL     1     -10.618  53.457   5.532  0.00  0.00    +0.000 OA
ATOM     25  H11 UNL     1     -10.701  54.441   5.433  0.00  0.00    +0.000 HD
ENDBRANCH  23  24
ENDBRANCH   5  23
TORSDOF 8
ENDMDL
MODEL 9
REMARK VINA RESULT:      -6.6      4.966      7.663
REMARK  Name = .\Catechins.pdb
REMARK  8 active torsions:
REMARK  status: ('A' for Active; 'I' for Inactive)
REMARK    1  A    between atoms: C3_3  and  O7_19
REMARK    2  A    between atoms: C4_4  and  O6_18
REMARK    3  A    between atoms: C6_6  and  C7_7
REMARK    4  A    between atoms: C8_8  and  O5_17
REMARK    5  A    between atoms: C9_9  and  O4_16
REMARK    6  A    between atoms: C10_10  and  O3_15
REMARK    7  A    between atoms: C11_11  and  C12_13
REMARK    8  A    between atoms: C12_13  and  O2_14
REMARK                            x       y       z     vdW  Elec       q    Type
REMARK                         _______ _______ _______ _____ _____    ______ ____
ROOT
ATOM      1  C7  UNL     1     -13.693  53.777   7.704  0.00  0.00    +0.000 C 
ATOM      2  C8  UNL     1     -12.753  52.757   7.009  0.00  0.00    +0.000 C 
ATOM      3  C9  UNL     1     -12.579  51.475   7.870  0.00  0.00    +0.000 C 
ATOM      4  C10 UNL     1     -12.710  51.810   9.365  0.00  0.00    +0.000 C 
ATOM      5  C11 UNL     1     -14.081  52.520   9.646  0.00  0.00    +0.000 C 
ATOM      6  O1  UNL     1     -14.660  53.089   8.476  0.00  0.00    +0.000 OA
ENDROOT
BRANCH   1  12
ATOM      7  C1  UNL     1     -14.978  55.863   7.046  0.00  0.00    +0.000 A 
ATOM      8  C2  UNL     1     -15.646  56.642   6.098  0.00  0.00    +0.000 A 
ATOM      9  C3  UNL     1     -15.742  56.208   4.769  0.00  0.00    +0.000 A 
ATOM     10  C4  UNL     1     -15.170  54.986   4.393  0.00  0.00    +0.000 A 
ATOM     11  C5  UNL     1     -14.499  54.205   5.344  0.00  0.00    +0.000 A 
ATOM     12  C6  UNL     1     -14.385  54.643   6.675  0.00  0.00    +0.000 A 
BRANCH  10  13
ATOM     13  O6  UNL     1     -15.274  54.555   3.071  0.00  0.00    +0.000 OA
ATOM     14  H15 UNL     1     -14.538  54.728   2.397  0.00  0.00    +0.000 HD
ENDBRANCH  10  13
BRANCH   9  15
ATOM     15  O7  UNL     1     -16.406  56.983   3.821  0.00  0.00    +0.000 OA
ATOM     16  H16 UNL     1     -15.961  57.255   2.951  0.00  0.00    +0.000 HD
ENDBRANCH   9  15
ENDBRANCH   1  12
BRANCH   4  17
ATOM     17  O3  UNL     1     -12.564  50.644  10.139  0.00  0.00    +0.000 OA
ATOM     18  H12 UNL     1     -11.859  50.827  10.813  0.00  0.00    +0.000 HD
ENDBRANCH   4  17
BRANCH   3  19
ATOM     19  O4  UNL     1     -11.338  50.868   7.619  0.00  0.00    +0.000 OA
ATOM     20  H13 UNL     1     -10.643  51.505   7.928  0.00  0.00    +0.000 HD
ENDBRANCH   3  19
BRANCH   2  21
ATOM     21  O5  UNL     1     -11.514  53.356   6.710  0.00  0.00    +0.000 OA
ATOM     22  H14 UNL     1     -10.921  53.231   7.495  0.00  0.00    +0.000 HD
ENDBRANCH   2  21
BRANCH   5  23
ATOM     23  C12 UNL     1     -15.119  51.574  10.268  0.00  0.00    +0.000 C 
BRANCH  23  24
ATOM     24  O2  UNL     1     -15.022  51.616  11.665  0.00  0.00    +0.000 OA
ATOM     25  H11 UNL     1     -15.946  51.503  12.009  0.00  0.00    +0.000 HD
ENDBRANCH  23  24
ENDBRANCH   5  23
TORSDOF 8
ENDMDL
