MODEL 1
REMARK VINA RESULT:      12.3      0.000      0.000
REMARK  Name = .\Catechins.pdb
REMARK  8 active torsions:
REMARK  status: ('A' for Active; 'I' for Inactive)
REMARK    1  A    between atoms: C3_3  and  O7_19
REMARK    2  A    between atoms: C4_4  and  O6_18
REMARK    3  A    between atoms: C6_6  and  C7_7
REMARK    4  A    between atoms: C8_8  and  O5_17
REMARK    5  A    between atoms: C9_9  and  O4_16
REMARK    6  A    between atoms: C10_10  and  O3_15
REMARK    7  A    between atoms: C11_11  and  C12_13
REMARK    8  A    between atoms: C12_13  and  O2_14
REMARK                            x       y       z     vdW  Elec       q    Type
REMARK                         _______ _______ _______ _____ _____    ______ ____
ROOT
ATOM      1  C7  UNL     1       4.202  50.986 -47.569  0.00  0.00    +0.000 C 
ATOM      2  C8  UNL     1       3.252  51.857 -48.433  0.00  0.00    +0.000 C 
ATOM      3  C9  UNL     1       3.869  52.148 -49.828  0.00  0.00    +0.000 C 
ATOM      4  C10 UNL     1       5.405  52.180 -49.742  0.00  0.00    +0.000 C 
ATOM      5  C11 UNL     1       5.944  50.839 -49.133  0.00  0.00    +0.000 C 
ATOM      6  O1  UNL     1       4.953  50.122 -48.404  0.00  0.00    +0.000 OA
ENDROOT
BRANCH   1  12
ATOM      7  C1  UNL     1       3.878  49.984 -45.261  0.00  0.00    +0.000 A 
ATOM      8  C2  UNL     1       3.159  49.199 -44.356  0.00  0.00    +0.000 A 
ATOM      9  C3  UNL     1       1.967  48.577 -44.753  0.00  0.00    +0.000 A 
ATOM     10  C4  UNL     1       1.500  48.740 -46.064  0.00  0.00    +0.000 A 
ATOM     11  C5  UNL     1       2.223  49.528 -46.971  0.00  0.00    +0.000 A 
ATOM     12  C6  UNL     1       3.409  50.168 -46.574  0.00  0.00    +0.000 A 
BRANCH  10  13
ATOM     13  O6  UNL     1       0.319  48.113 -46.457  0.00  0.00    +0.000 OA
ATOM     14  H15 UNL     1       0.150  47.132 -46.265  0.00  0.00    +0.000 HD
ENDBRANCH  10  13
BRANCH   9  15
ATOM     15  O7  UNL     1       1.247  47.795 -43.854  0.00  0.00    +0.000 OA
ATOM     16  H16 UNL     1       1.597  47.596 -42.923  0.00  0.00    +0.000 HD
ENDBRANCH   9  15
ENDBRANCH   1  12
BRANCH   4  17
ATOM     17  O3  UNL     1       5.958  52.432 -51.011  0.00  0.00    +0.000 OA
ATOM     18  H12 UNL     1       5.285  52.948 -51.527  0.00  0.00    +0.000 HD
ENDBRANCH   4  17
BRANCH   3  19
ATOM     19  O4  UNL     1       3.389  53.362 -50.345  0.00  0.00    +0.000 OA
ATOM     20  H13 UNL     1       2.442  53.209 -50.598  0.00  0.00    +0.000 HD
ENDBRANCH   3  19
BRANCH   2  21
ATOM     21  O5  UNL     1       2.922  53.044 -47.751  0.00  0.00    +0.000 OA
ATOM     22  H14 UNL     1       3.456  53.071 -46.916  0.00  0.00    +0.000 HD
ENDBRANCH   2  21
BRANCH   5  23
ATOM     23  C12 UNL     1       6.513  49.893 -50.201  0.00  0.00    +0.000 C 
BRANCH  23  24
ATOM     24  O2  UNL     1       5.475  49.411 -51.009  0.00  0.00    +0.000 OA
ATOM     25  H11 UNL     1       5.903  49.084 -51.843  0.00  0.00    +0.000 HD
ENDBRANCH  23  24
ENDBRANCH   5  23
TORSDOF 8
ENDMDL
