MODEL 1
REMARK VINA RESULT:      -4.7      0.000      0.000
REMARK  Name = .\Catechins.pdb
REMARK  8 active torsions:
REMARK  status: ('A' for Active; 'I' for Inactive)
REMARK    1  A    between atoms: C3_3  and  O7_19
REMARK    2  A    between atoms: C4_4  and  O6_18
REMARK    3  A    between atoms: C6_6  and  C7_7
REMARK    4  A    between atoms: C8_8  and  O5_17
REMARK    5  A    between atoms: C9_9  and  O4_16
REMARK    6  A    between atoms: C10_10  and  O3_15
REMARK    7  A    between atoms: C11_11  and  C12_13
REMARK    8  A    between atoms: C12_13  and  O2_14
REMARK                            x       y       z     vdW  Elec       q    Type
REMARK                         _______ _______ _______ _____ _____    ______ ____
ROOT
ATOM      1  C7  UNL     1     -13.383  30.760  -1.027  0.00  0.00    +0.000 C 
ATOM      2  C8  UNL     1     -12.938  29.514  -1.837  0.00  0.00    +0.000 C 
ATOM      3  C9  UNL     1     -13.419  29.600  -3.312  0.00  0.00    +0.000 C 
ATOM      4  C10 UNL     1     -14.730  30.400  -3.405  0.00  0.00    +0.000 C 
ATOM      5  C11 UNL     1     -14.547  31.821  -2.766  0.00  0.00    +0.000 C 
ATOM      6  O1  UNL     1     -13.436  31.891  -1.878  0.00  0.00    +0.000 OA
ENDROOT
BRANCH   1  12
ATOM      7  C1  UNL     1     -12.598  30.402   1.358  0.00  0.00    +0.000 A 
ATOM      8  C2  UNL     1     -11.726  30.675   2.415  0.00  0.00    +0.000 A 
ATOM      9  C3  UNL     1     -10.670  31.581   2.242  0.00  0.00    +0.000 A 
ATOM     10  C4  UNL     1     -10.494  32.218   1.007  0.00  0.00    +0.000 A 
ATOM     11  C5  UNL     1     -11.370  31.943  -0.053  0.00  0.00    +0.000 A 
ATOM     12  C6  UNL     1     -12.420  31.023   0.109  0.00  0.00    +0.000 A 
BRANCH  10  13
ATOM     13  O6  UNL     1      -9.448  33.124   0.842  0.00  0.00    +0.000 OA
ATOM     14  H15 UNL     1      -9.167  33.751   1.587  0.00  0.00    +0.000 HD
ENDBRANCH  10  13
BRANCH   9  15
ATOM     15  O7  UNL     1      -9.797  31.855   3.293  0.00  0.00    +0.000 OA
ATOM     16  H16 UNL     1     -10.102  31.818   4.259  0.00  0.00    +0.000 HD
ENDBRANCH   9  15
ENDBRANCH   1  12
BRANCH   4  17
ATOM     17  O3  UNL     1     -15.153  30.485  -4.744  0.00  0.00    +0.000 OA
ATOM     18  H12 UNL     1     -15.883  29.823  -4.863  0.00  0.00    +0.000 HD
ENDBRANCH   4  17
BRANCH   3  19
ATOM     19  O4  UNL     1     -13.596  28.318  -3.857  0.00  0.00    +0.000 OA
ATOM     20  H13 UNL     1     -14.325  28.393  -4.526  0.00  0.00    +0.000 HD
ENDBRANCH   3  19
BRANCH   2  21
ATOM     21  O5  UNL     1     -13.388  28.336  -1.210  0.00  0.00    +0.000 OA
ATOM     22  H14 UNL     1     -12.720  27.625  -1.389  0.00  0.00    +0.000 HD
ENDBRANCH   2  21
BRANCH   5  23
ATOM     23  C12 UNL     1     -14.373  32.923  -3.821  0.00  0.00    +0.000 C 
BRANCH  23  24
ATOM     24  O2  UNL     1     -13.373  33.816  -3.412  0.00  0.00    +0.000 OA
ATOM     25  H11 UNL     1     -13.346  34.533  -4.098  0.00  0.00    +0.000 HD
ENDBRANCH  23  24
ENDBRANCH   5  23
TORSDOF 8
ENDMDL
MODEL 2
REMARK VINA RESULT:      -4.7      3.409      7.959
REMARK  Name = .\Catechins.pdb
REMARK  8 active torsions:
REMARK  status: ('A' for Active; 'I' for Inactive)
REMARK    1  A    between atoms: C3_3  and  O7_19
REMARK    2  A    between atoms: C4_4  and  O6_18
REMARK    3  A    between atoms: C6_6  and  C7_7
REMARK    4  A    between atoms: C8_8  and  O5_17
REMARK    5  A    between atoms: C9_9  and  O4_16
REMARK    6  A    between atoms: C10_10  and  O3_15
REMARK    7  A    between atoms: C11_11  and  C12_13
REMARK    8  A    between atoms: C12_13  and  O2_14
REMARK                            x       y       z     vdW  Elec       q    Type
REMARK                         _______ _______ _______ _____ _____    ______ ____
ROOT
ATOM      1  C7  UNL     1     -10.781  30.699   4.513  0.00  0.00    +0.000 C 
ATOM      2  C8  UNL     1      -9.372  30.068   4.670  0.00  0.00    +0.000 C 
ATOM      3  C9  UNL     1      -9.328  29.080   5.868  0.00  0.00    +0.000 C 
ATOM      4  C10 UNL     1     -10.324  29.511   6.957  0.00  0.00    +0.000 C 
ATOM      5  C11 UNL     1     -11.768  29.637   6.357  0.00  0.00    +0.000 C 
ATOM      6  O1  UNL     1     -11.769  29.778   4.939  0.00  0.00    +0.000 OA
ENDROOT
BRANCH   1  12
ATOM      7  C1  UNL     1     -12.075  30.484   2.342  0.00  0.00    +0.000 A 
ATOM      8  C2  UNL     1     -12.280  30.815   0.999  0.00  0.00    +0.000 A 
ATOM      9  C3  UNL     1     -11.437  31.738   0.364  0.00  0.00    +0.000 A 
ATOM     10  C4  UNL     1     -10.384  32.324   1.076  0.00  0.00    +0.000 A 
ATOM     11  C5  UNL     1     -10.179  31.991   2.423  0.00  0.00    +0.000 A 
ATOM     12  C6  UNL     1     -11.031  31.080   3.071  0.00  0.00    +0.000 A 
BRANCH  10  13
ATOM     13  O6  UNL     1      -9.543  33.234   0.438  0.00  0.00    +0.000 OA
ATOM     14  H15 UNL     1      -9.389  33.202  -0.563  0.00  0.00    +0.000 HD
ENDBRANCH  10  13
BRANCH   9  15
ATOM     15  O7  UNL     1     -11.639  32.071  -0.973  0.00  0.00    +0.000 OA
ATOM     16  H16 UNL     1     -12.451  31.745  -1.485  0.00  0.00    +0.000 HD
ENDBRANCH   9  15
ENDBRANCH   1  12
BRANCH   4  17
ATOM     17  O3  UNL     1     -10.289  28.606   8.034  0.00  0.00    +0.000 OA
ATOM     18  H12 UNL     1      -9.375  28.647   8.421  0.00  0.00    +0.000 HD
ENDBRANCH   4  17
BRANCH   3  19
ATOM     19  O4  UNL     1      -8.032  29.000   6.403  0.00  0.00    +0.000 OA
ATOM     20  H13 UNL     1      -7.601  29.877   6.234  0.00  0.00    +0.000 HD
ENDBRANCH   3  19
BRANCH   2  21
ATOM     21  O5  UNL     1      -8.395  31.076   4.788  0.00  0.00    +0.000 OA
ATOM     22  H14 UNL     1      -7.996  31.216   3.891  0.00  0.00    +0.000 HD
ENDBRANCH   2  21
BRANCH   5  23
ATOM     23  C12 UNL     1     -12.658  28.435   6.707  0.00  0.00    +0.000 C 
BRANCH  23  24
ATOM     24  O2  UNL     1     -13.309  28.665   7.926  0.00  0.00    +0.000 OA
ATOM     25  H11 UNL     1     -13.579  27.773   8.268  0.00  0.00    +0.000 HD
ENDBRANCH  23  24
ENDBRANCH   5  23
TORSDOF 8
ENDMDL
MODEL 3
REMARK VINA RESULT:      -4.6      2.008      2.736
REMARK  Name = .\Catechins.pdb
REMARK  8 active torsions:
REMARK  status: ('A' for Active; 'I' for Inactive)
REMARK    1  A    between atoms: C3_3  and  O7_19
REMARK    2  A    between atoms: C4_4  and  O6_18
REMARK    3  A    between atoms: C6_6  and  C7_7
REMARK    4  A    between atoms: C8_8  and  O5_17
REMARK    5  A    between atoms: C9_9  and  O4_16
REMARK    6  A    between atoms: C10_10  and  O3_15
REMARK    7  A    between atoms: C11_11  and  C12_13
REMARK    8  A    between atoms: C12_13  and  O2_14
REMARK                            x       y       z     vdW  Elec       q    Type
REMARK                         _______ _______ _______ _____ _____    ______ ____
ROOT
ATOM      1  C7  UNL     1     -12.117  31.025  -0.867  0.00  0.00    +0.000 C 
ATOM      2  C8  UNL     1     -10.933  31.498  -1.751  0.00  0.00    +0.000 C 
ATOM      3  C9  UNL     1     -11.436  32.072  -3.104  0.00  0.00    +0.000 C 
ATOM      4  C10 UNL     1     -12.746  31.386  -3.526  0.00  0.00    +0.000 C 
ATOM      5  C11 UNL     1     -13.824  31.530  -2.395  0.00  0.00    +0.000 C 
ATOM      6  O1  UNL     1     -13.257  31.826  -1.122  0.00  0.00    +0.000 OA
ENDROOT
BRANCH   1  12
ATOM      7  C1  UNL     1     -10.651  31.883   1.017  0.00  0.00    +0.000 A 
ATOM      8  C2  UNL     1     -10.296  31.933   2.368  0.00  0.00    +0.000 A 
ATOM      9  C3  UNL     1     -11.028  31.206   3.317  0.00  0.00    +0.000 A 
ATOM     10  C4  UNL     1     -12.114  30.422   2.907  0.00  0.00    +0.000 A 
ATOM     11  C5  UNL     1     -12.470  30.372   1.551  0.00  0.00    +0.000 A 
ATOM     12  C6  UNL     1     -11.751  31.113   0.598  0.00  0.00    +0.000 A 
BRANCH  10  13
ATOM     13  O6  UNL     1     -12.834  29.694   3.853  0.00  0.00    +0.000 OA
ATOM     14  H15 UNL     1     -12.595  29.722   4.837  0.00  0.00    +0.000 HD
ENDBRANCH  10  13
BRANCH   9  15
ATOM     15  O7  UNL     1     -10.678  31.254   4.664  0.00  0.00    +0.000 OA
ATOM     16  H16 UNL     1     -10.766  30.443   5.265  0.00  0.00    +0.000 HD
ENDBRANCH   9  15
ENDBRANCH   1  12
BRANCH   4  17
ATOM     17  O3  UNL     1     -13.203  31.918  -4.746  0.00  0.00    +0.000 OA
ATOM     18  H12 UNL     1     -14.156  32.165  -4.619  0.00  0.00    +0.000 HD
ENDBRANCH   4  17
BRANCH   3  19
ATOM     19  O4  UNL     1     -10.465  31.913  -4.107  0.00  0.00    +0.000 OA
ATOM     20  H13 UNL     1     -10.663  32.591  -4.803  0.00  0.00    +0.000 HD
ENDBRANCH   3  19
BRANCH   2  21
ATOM     21  O5  UNL     1     -10.012  30.449  -1.939  0.00  0.00    +0.000 OA
ATOM     22  H14 UNL     1      -9.722  30.139  -1.043  0.00  0.00    +0.000 HD
ENDBRANCH   2  21
BRANCH   5  23
ATOM     23  C12 UNL     1     -14.864  32.616  -2.706  0.00  0.00    +0.000 C 
BRANCH  23  24
ATOM     24  O2  UNL     1     -15.119  33.373  -1.554  0.00  0.00    +0.000 OA
ATOM     25  H11 UNL     1     -15.907  32.956  -1.119  0.00  0.00    +0.000 HD
ENDBRANCH  23  24
ENDBRANCH   5  23
TORSDOF 8
ENDMDL
MODEL 4
REMARK VINA RESULT:      -4.5      3.625      8.097
REMARK  Name = .\Catechins.pdb
REMARK  8 active torsions:
REMARK  status: ('A' for Active; 'I' for Inactive)
REMARK    1  A    between atoms: C3_3  and  O7_19
REMARK    2  A    between atoms: C4_4  and  O6_18
REMARK    3  A    between atoms: C6_6  and  C7_7
REMARK    4  A    between atoms: C8_8  and  O5_17
REMARK    5  A    between atoms: C9_9  and  O4_16
REMARK    6  A    between atoms: C10_10  and  O3_15
REMARK    7  A    between atoms: C11_11  and  C12_13
REMARK    8  A    between atoms: C12_13  and  O2_14
REMARK                            x       y       z     vdW  Elec       q    Type
REMARK                         _______ _______ _______ _____ _____    ______ ____
ROOT
ATOM      1  C7  UNL     1     -10.742  29.960   4.709  0.00  0.00    +0.000 C 
ATOM      2  C8  UNL     1     -12.044  29.496   5.415  0.00  0.00    +0.000 C 
ATOM      3  C9  UNL     1     -11.883  29.514   6.960  0.00  0.00    +0.000 C 
ATOM      4  C10 UNL     1     -10.420  29.247   7.352  0.00  0.00    +0.000 C 
ATOM      5  C11 UNL     1      -9.472  30.284   6.654  0.00  0.00    +0.000 C 
ATOM      6  O1  UNL     1     -10.068  30.905   5.520  0.00  0.00    +0.000 OA
ENDROOT
BRANCH   1  12
ATOM      7  C1  UNL     1     -12.177  30.148   2.626  0.00  0.00    +0.000 A 
ATOM      8  C2  UNL     1     -12.447  30.698   1.370  0.00  0.00    +0.000 A 
ATOM      9  C3  UNL     1     -11.600  31.676   0.831  0.00  0.00    +0.000 A 
ATOM     10  C4  UNL     1     -10.476  32.098   1.552  0.00  0.00    +0.000 A 
ATOM     11  C5  UNL     1     -10.205  31.546   2.813  0.00  0.00    +0.000 A 
ATOM     12  C6  UNL     1     -11.061  30.578   3.366  0.00  0.00    +0.000 A 
BRANCH  10  13
ATOM     13  O6  UNL     1      -9.631  33.064   1.009  0.00  0.00    +0.000 OA
ATOM     14  H15 UNL     1      -9.605  33.245   0.012  0.00  0.00    +0.000 HD
ENDBRANCH  10  13
BRANCH   9  15
ATOM     15  O7  UNL     1     -11.866  32.227  -0.421  0.00  0.00    +0.000 OA
ATOM     16  H16 UNL     1     -11.987  33.226  -0.546  0.00  0.00    +0.000 HD
ENDBRANCH   9  15
ENDBRANCH   1  12
BRANCH   4  17
ATOM     17  O3  UNL     1     -10.279  29.276   8.751  0.00  0.00    +0.000 OA
ATOM     18  H12 UNL     1     -10.292  28.335   9.067  0.00  0.00    +0.000 HD
ENDBRANCH   4  17
BRANCH   3  19
ATOM     19  O4  UNL     1     -12.725  28.564   7.561  0.00  0.00    +0.000 OA
ATOM     20  H13 UNL     1     -12.820  27.819   6.914  0.00  0.00    +0.000 HD
ENDBRANCH   3  19
BRANCH   2  21
ATOM     21  O5  UNL     1     -12.430  28.226   4.945  0.00  0.00    +0.000 OA
ATOM     22  H14 UNL     1     -11.671  27.605   5.096  0.00  0.00    +0.000 HD
ENDBRANCH   2  21
BRANCH   5  23
ATOM     23  C12 UNL     1      -9.011  31.396   7.608  0.00  0.00    +0.000 C 
BRANCH  23  24
ATOM     24  O2  UNL     1      -8.084  32.223   6.960  0.00  0.00    +0.000 OA
ATOM     25  H11 UNL     1      -8.085  31.945   6.008  0.00  0.00    +0.000 HD
ENDBRANCH  23  24
ENDBRANCH   5  23
TORSDOF 8
ENDMDL
MODEL 5
REMARK VINA RESULT:      -4.2      3.484      7.256
REMARK  Name = .\Catechins.pdb
REMARK  8 active torsions:
REMARK  status: ('A' for Active; 'I' for Inactive)
REMARK    1  A    between atoms: C3_3  and  O7_19
REMARK    2  A    between atoms: C4_4  and  O6_18
REMARK    3  A    between atoms: C6_6  and  C7_7
REMARK    4  A    between atoms: C8_8  and  O5_17
REMARK    5  A    between atoms: C9_9  and  O4_16
REMARK    6  A    between atoms: C10_10  and  O3_15
REMARK    7  A    between atoms: C11_11  and  C12_13
REMARK    8  A    between atoms: C12_13  and  O2_14
REMARK                            x       y       z     vdW  Elec       q    Type
REMARK                         _______ _______ _______ _____ _____    ______ ____
ROOT
ATOM      1  C7  UNL     1     -12.401  29.431   3.560  0.00  0.00    +0.000 C 
ATOM      2  C8  UNL     1     -13.577  30.027   4.378  0.00  0.00    +0.000 C 
ATOM      3  C9  UNL     1     -13.498  29.599   5.870  0.00  0.00    +0.000 C 
ATOM      4  C10 UNL     1     -12.827  28.221   5.999  0.00  0.00    +0.000 C 
ATOM      5  C11 UNL     1     -11.412  28.238   5.321  0.00  0.00    +0.000 C 
ATOM      6  O1  UNL     1     -11.258  29.302   4.386  0.00  0.00    +0.000 OA
ENDROOT
BRANCH   1  12
ATOM      7  C1  UNL     1     -12.802  30.209   1.179  0.00  0.00    +0.000 A 
ATOM      8  C2  UNL     1     -12.475  31.007   0.079  0.00  0.00    +0.000 A 
ATOM      9  C3  UNL     1     -11.413  31.918   0.159  0.00  0.00    +0.000 A 
ATOM     10  C4  UNL     1     -10.674  32.022   1.344  0.00  0.00    +0.000 A 
ATOM     11  C5  UNL     1     -11.002  31.221   2.447  0.00  0.00    +0.000 A 
ATOM     12  C6  UNL     1     -12.077  30.319   2.379  0.00  0.00    +0.000 A 
BRANCH  10  13
ATOM     13  O6  UNL     1      -9.612  32.924   1.417  0.00  0.00    +0.000 OA
ATOM     14  H15 UNL     1      -9.684  33.785   1.945  0.00  0.00    +0.000 HD
ENDBRANCH  10  13
BRANCH   9  15
ATOM     15  O7  UNL     1     -11.085  32.716  -0.934  0.00  0.00    +0.000 OA
ATOM     16  H16 UNL     1     -11.782  32.994  -1.616  0.00  0.00    +0.000 HD
ENDBRANCH   9  15
ENDBRANCH   1  12
BRANCH   4  17
ATOM     17  O3  UNL     1     -12.747  27.844   7.352  0.00  0.00    +0.000 OA
ATOM     18  H12 UNL     1     -13.610  28.089   7.776  0.00  0.00    +0.000 HD
ENDBRANCH   4  17
BRANCH   3  19
ATOM     19  O4  UNL     1     -14.776  29.569   6.450  0.00  0.00    +0.000 OA
ATOM     20  H13 UNL     1     -14.815  30.326   7.090  0.00  0.00    +0.000 HD
ENDBRANCH   3  19
BRANCH   2  21
ATOM     21  O5  UNL     1     -14.809  29.670   3.798  0.00  0.00    +0.000 OA
ATOM     22  H14 UNL     1     -14.908  28.687   3.883  0.00  0.00    +0.000 HD
ENDBRANCH   2  21
BRANCH   5  23
ATOM     23  C12 UNL     1     -10.270  28.346   6.342  0.00  0.00    +0.000 C 
BRANCH  23  24
ATOM     24  O2  UNL     1     -10.292  29.610   6.948  0.00  0.00    +0.000 OA
ATOM     25  H11 UNL     1      -9.486  29.654   7.525  0.00  0.00    +0.000 HD
ENDBRANCH  23  24
ENDBRANCH   5  23
TORSDOF 8
ENDMDL
MODEL 6
REMARK VINA RESULT:      -4.0      1.656      1.860
REMARK  Name = .\Catechins.pdb
REMARK  8 active torsions:
REMARK  status: ('A' for Active; 'I' for Inactive)
REMARK    1  A    between atoms: C3_3  and  O7_19
REMARK    2  A    between atoms: C4_4  and  O6_18
REMARK    3  A    between atoms: C6_6  and  C7_7
REMARK    4  A    between atoms: C8_8  and  O5_17
REMARK    5  A    between atoms: C9_9  and  O4_16
REMARK    6  A    between atoms: C10_10  and  O3_15
REMARK    7  A    between atoms: C11_11  and  C12_13
REMARK    8  A    between atoms: C12_13  and  O2_14
REMARK                            x       y       z     vdW  Elec       q    Type
REMARK                         _______ _______ _______ _____ _____    ______ ____
ROOT
ATOM      1  C7  UNL     1     -12.883  30.921  -0.658  0.00  0.00    +0.000 C 
ATOM      2  C8  UNL     1     -13.436  29.553  -1.138  0.00  0.00    +0.000 C 
ATOM      3  C9  UNL     1     -13.357  29.426  -2.685  0.00  0.00    +0.000 C 
ATOM      4  C10 UNL     1     -13.484  30.809  -3.345  0.00  0.00    +0.000 C 
ATOM      5  C11 UNL     1     -12.390  31.784  -2.783  0.00  0.00    +0.000 C 
ATOM      6  O1  UNL     1     -11.858  31.358  -1.532  0.00  0.00    +0.000 OA
ENDROOT
BRANCH   1  12
ATOM      7  C1  UNL     1     -13.002  30.028   1.713  0.00  0.00    +0.000 A 
ATOM      8  C2  UNL     1     -12.512  29.953   3.020  0.00  0.00    +0.000 A 
ATOM      9  C3  UNL     1     -11.359  30.662   3.383  0.00  0.00    +0.000 A 
ATOM     10  C4  UNL     1     -10.701  31.454   2.434  0.00  0.00    +0.000 A 
ATOM     11  C5  UNL     1     -11.192  31.528   1.123  0.00  0.00    +0.000 A 
ATOM     12  C6  UNL     1     -12.338  30.805   0.748  0.00  0.00    +0.000 A 
BRANCH  10  13
ATOM     13  O6  UNL     1      -9.559  32.164   2.801  0.00  0.00    +0.000 OA
ATOM     14  H15 UNL     1      -9.621  33.053   3.284  0.00  0.00    +0.000 HD
ENDBRANCH  10  13
BRANCH   9  15
ATOM     15  O7  UNL     1     -10.868  30.589   4.685  0.00  0.00    +0.000 OA
ATOM     16  H16 UNL     1      -9.872  30.565   4.876  0.00  0.00    +0.000 HD
ENDBRANCH   9  15
ENDBRANCH   1  12
BRANCH   4  17
ATOM     17  O3  UNL     1     -13.399  30.689  -4.745  0.00  0.00    +0.000 OA
ATOM     18  H12 UNL     1     -12.477  30.388  -4.957  0.00  0.00    +0.000 HD
ENDBRANCH   4  17
BRANCH   3  19
ATOM     19  O4  UNL     1     -14.357  28.567  -3.168  0.00  0.00    +0.000 OA
ATOM     20  H13 UNL     1     -14.861  28.244  -2.377  0.00  0.00    +0.000 HD
ENDBRANCH   3  19
BRANCH   2  21
ATOM     21  O5  UNL     1     -14.749  29.362  -0.666  0.00  0.00    +0.000 OA
ATOM     22  H14 UNL     1     -15.354  29.914  -1.226  0.00  0.00    +0.000 HD
ENDBRANCH   2  21
BRANCH   5  23
ATOM     23  C12 UNL     1     -11.213  31.971  -3.751  0.00  0.00    +0.000 C 
BRANCH  23  24
ATOM     24  O2  UNL     1     -10.438  30.804  -3.788  0.00  0.00    +0.000 OA
ATOM     25  H11 UNL     1      -9.494  31.101  -3.852  0.00  0.00    +0.000 HD
ENDBRANCH  23  24
ENDBRANCH   5  23
TORSDOF 8
ENDMDL
MODEL 7
REMARK VINA RESULT:      -3.6      2.138      3.057
REMARK  Name = .\Catechins.pdb
REMARK  8 active torsions:
REMARK  status: ('A' for Active; 'I' for Inactive)
REMARK    1  A    between atoms: C3_3  and  O7_19
REMARK    2  A    between atoms: C4_4  and  O6_18
REMARK    3  A    between atoms: C6_6  and  C7_7
REMARK    4  A    between atoms: C8_8  and  O5_17
REMARK    5  A    between atoms: C9_9  and  O4_16
REMARK    6  A    between atoms: C10_10  and  O3_15
REMARK    7  A    between atoms: C11_11  and  C12_13
REMARK    8  A    between atoms: C12_13  and  O2_14
REMARK                            x       y       z     vdW  Elec       q    Type
REMARK                         _______ _______ _______ _____ _____    ______ ____
ROOT
ATOM      1  C7  UNL     1     -12.532  31.089   0.129  0.00  0.00    +0.000 C 
ATOM      2  C8  UNL     1     -13.216  29.860  -0.526  0.00  0.00    +0.000 C 
ATOM      3  C9  UNL     1     -13.008  29.855  -2.066  0.00  0.00    +0.000 C 
ATOM      4  C10 UNL     1     -12.884  31.294  -2.596  0.00  0.00    +0.000 C 
ATOM      5  C11 UNL     1     -11.728  32.051  -1.854  0.00  0.00    +0.000 C 
ATOM      6  O1  UNL     1     -11.379  31.448  -0.611  0.00  0.00    +0.000 OA
ENDROOT
BRANCH   1  12
ATOM      7  C1  UNL     1     -11.042  31.416   2.156  0.00  0.00    +0.000 A 
ATOM      8  C2  UNL     1     -10.665  31.099   3.464  0.00  0.00    +0.000 A 
ATOM      9  C3  UNL     1     -11.376  30.132   4.187  0.00  0.00    +0.000 A 
ATOM     10  C4  UNL     1     -12.462  29.477   3.594  0.00  0.00    +0.000 A 
ATOM     11  C5  UNL     1     -12.840  29.796   2.281  0.00  0.00    +0.000 A 
ATOM     12  C6  UNL     1     -12.142  30.778   1.557  0.00  0.00    +0.000 A 
BRANCH  10  13
ATOM     13  O6  UNL     1     -13.161  28.510   4.314  0.00  0.00    +0.000 OA
ATOM     14  H15 UNL     1     -14.029  28.727   4.790  0.00  0.00    +0.000 HD
ENDBRANCH  10  13
BRANCH   9  15
ATOM     15  O7  UNL     1     -11.004  29.814   5.492  0.00  0.00    +0.000 OA
ATOM     16  H16 UNL     1     -10.528  28.947   5.712  0.00  0.00    +0.000 HD
ENDBRANCH   9  15
ENDBRANCH   1  12
BRANCH   4  17
ATOM     17  O3  UNL     1     -12.684  31.282  -3.989  0.00  0.00    +0.000 OA
ATOM     18  H12 UNL     1     -13.566  31.109  -4.410  0.00  0.00    +0.000 HD
ENDBRANCH   4  17
BRANCH   3  19
ATOM     19  O4  UNL     1     -14.064  29.192  -2.711  0.00  0.00    +0.000 OA
ATOM     20  H13 UNL     1     -14.904  29.588  -2.361  0.00  0.00    +0.000 HD
ENDBRANCH   3  19
BRANCH   2  21
ATOM     21  O5  UNL     1     -14.581  29.819  -0.184  0.00  0.00    +0.000 OA
ATOM     22  H14 UNL     1     -14.793  30.651   0.313  0.00  0.00    +0.000 HD
ENDBRANCH   2  21
BRANCH   5  23
ATOM     23  C12 UNL     1     -10.450  32.150  -2.700  0.00  0.00    +0.000 C 
BRANCH  23  24
ATOM     24  O2  UNL     1      -9.513  32.965  -2.050  0.00  0.00    +0.000 OA
ATOM     25  H11 UNL     1      -8.881  32.350  -1.595  0.00  0.00    +0.000 HD
ENDBRANCH  23  24
ENDBRANCH   5  23
TORSDOF 8
ENDMDL
MODEL 8
REMARK VINA RESULT:      -3.6      2.154      3.300
REMARK  Name = .\Catechins.pdb
REMARK  8 active torsions:
REMARK  status: ('A' for Active; 'I' for Inactive)
REMARK    1  A    between atoms: C3_3  and  O7_19
REMARK    2  A    between atoms: C4_4  and  O6_18
REMARK    3  A    between atoms: C6_6  and  C7_7
REMARK    4  A    between atoms: C8_8  and  O5_17
REMARK    5  A    between atoms: C9_9  and  O4_16
REMARK    6  A    between atoms: C10_10  and  O3_15
REMARK    7  A    between atoms: C11_11  and  C12_13
REMARK    8  A    between atoms: C12_13  and  O2_14
REMARK                            x       y       z     vdW  Elec       q    Type
REMARK                         _______ _______ _______ _____ _____    ______ ____
ROOT
ATOM      1  C7  UNL     1     -12.642  30.724   1.378  0.00  0.00    +0.000 C 
ATOM      2  C8  UNL     1     -13.330  29.508   0.704  0.00  0.00    +0.000 C 
ATOM      3  C9  UNL     1     -13.175  29.559  -0.841  0.00  0.00    +0.000 C 
ATOM      4  C10 UNL     1     -13.091  31.017  -1.325  0.00  0.00    +0.000 C 
ATOM      5  C11 UNL     1     -11.921  31.766  -0.596  0.00  0.00    +0.000 C 
ATOM      6  O1  UNL     1     -11.521  31.127   0.612  0.00  0.00    +0.000 OA
ENDROOT
BRANCH   1  12
ATOM      7  C1  UNL     1     -12.986  29.534   3.592  0.00  0.00    +0.000 A 
ATOM      8  C2  UNL     1     -12.588  29.238   4.899  0.00  0.00    +0.000 A 
ATOM      9  C3  UNL     1     -11.405  29.782   5.417  0.00  0.00    +0.000 A 
ATOM     10  C4  UNL     1     -10.623  30.630   4.622  0.00  0.00    +0.000 A 
ATOM     11  C5  UNL     1     -11.022  30.926   3.311  0.00  0.00    +0.000 A 
ATOM     12  C6  UNL     1     -12.198  30.370   2.780  0.00  0.00    +0.000 A 
BRANCH  10  13
ATOM     13  O6  UNL     1      -9.451  31.176   5.144  0.00  0.00    +0.000 OA
ATOM     14  H15 UNL     1      -9.092  32.067   4.821  0.00  0.00    +0.000 HD
ENDBRANCH  10  13
BRANCH   9  15
ATOM     15  O7  UNL     1     -11.005  29.489   6.718  0.00  0.00    +0.000 OA
ATOM     16  H16 UNL     1     -10.478  28.650   6.935  0.00  0.00    +0.000 HD
ENDBRANCH   9  15
ENDBRANCH   1  12
BRANCH   4  17
ATOM     17  O3  UNL     1     -12.939  31.057  -2.723  0.00  0.00    +0.000 OA
ATOM     18  H12 UNL     1     -13.831  30.876  -3.120  0.00  0.00    +0.000 HD
ENDBRANCH   4  17
BRANCH   3  19
ATOM     19  O4  UNL     1     -14.243  28.902  -1.472  0.00  0.00    +0.000 OA
ATOM     20  H13 UNL     1     -15.051  29.080  -0.923  0.00  0.00    +0.000 HD
ENDBRANCH   3  19
BRANCH   2  21
ATOM     21  O5  UNL     1     -14.682  29.433   1.091  0.00  0.00    +0.000 OA
ATOM     22  H14 UNL     1     -14.855  30.176   1.725  0.00  0.00    +0.000 HD
ENDBRANCH   2  21
BRANCH   5  23
ATOM     23  C12 UNL     1     -10.675  31.915  -1.481  0.00  0.00    +0.000 C 
BRANCH  23  24
ATOM     24  O2  UNL     1     -10.762  33.097  -2.229  0.00  0.00    +0.000 OA
ATOM     25  H11 UNL     1     -11.083  32.830  -3.130  0.00  0.00    +0.000 HD
ENDBRANCH  23  24
ENDBRANCH   5  23
TORSDOF 8
ENDMDL
MODEL 9
REMARK VINA RESULT:      -3.5      2.672      5.085
REMARK  Name = .\Catechins.pdb
REMARK  8 active torsions:
REMARK  status: ('A' for Active; 'I' for Inactive)
REMARK    1  A    between atoms: C3_3  and  O7_19
REMARK    2  A    between atoms: C4_4  and  O6_18
REMARK    3  A    between atoms: C6_6  and  C7_7
REMARK    4  A    between atoms: C8_8  and  O5_17
REMARK    5  A    between atoms: C9_9  and  O4_16
REMARK    6  A    between atoms: C10_10  and  O3_15
REMARK    7  A    between atoms: C11_11  and  C12_13
REMARK    8  A    between atoms: C12_13  and  O2_14
REMARK                            x       y       z     vdW  Elec       q    Type
REMARK                         _______ _______ _______ _____ _____    ______ ____
ROOT
ATOM      1  C7  UNL     1     -11.668  30.522   2.019  0.00  0.00    +0.000 C 
ATOM      2  C8  UNL     1     -10.818  31.794   2.278  0.00  0.00    +0.000 C 
ATOM      3  C9  UNL     1     -10.705  32.665   0.997  0.00  0.00    +0.000 C 
ATOM      4  C10 UNL     1     -10.771  31.783  -0.261  0.00  0.00    +0.000 C 
ATOM      5  C11 UNL     1     -12.083  30.922  -0.255  0.00  0.00    +0.000 C 
ATOM      6  O1  UNL     1     -12.656  30.796   1.043  0.00  0.00    +0.000 OA
ENDROOT
BRANCH   1  12
ATOM      7  C1  UNL     1     -13.687  29.691   3.310  0.00  0.00    +0.000 A 
ATOM      8  C2  UNL     1     -14.303  29.298   4.501  0.00  0.00    +0.000 A 
ATOM      9  C3  UNL     1     -13.576  29.282   5.699  0.00  0.00    +0.000 A 
ATOM     10  C4  UNL     1     -12.229  29.666   5.702  0.00  0.00    +0.000 A 
ATOM     11  C5  UNL     1     -11.611  30.059   4.506  0.00  0.00    +0.000 A 
ATOM     12  C6  UNL     1     -12.331  30.061   3.298  0.00  0.00    +0.000 A 
BRANCH  10  13
ATOM     13  O6  UNL     1     -11.512  29.656   6.897  0.00  0.00    +0.000 OA
ATOM     14  H15 UNL     1     -11.279  28.790   7.368  0.00  0.00    +0.000 HD
ENDBRANCH  10  13
BRANCH   9  15
ATOM     15  O7  UNL     1     -14.186  28.890   6.889  0.00  0.00    +0.000 OA
ATOM     16  H16 UNL     1     -15.057  29.305   7.200  0.00  0.00    +0.000 HD
ENDBRANCH   9  15
ENDBRANCH   1  12
BRANCH   4  17
ATOM     17  O3  UNL     1     -10.680  32.578  -1.419  0.00  0.00    +0.000 OA
ATOM     18  H12 UNL     1     -11.261  32.161  -2.107  0.00  0.00    +0.000 HD
ENDBRANCH   4  17
BRANCH   3  19
ATOM     19  O4  UNL     1      -9.514  33.410   1.001  0.00  0.00    +0.000 OA
ATOM     20  H13 UNL     1      -9.650  34.159   1.637  0.00  0.00    +0.000 HD
ENDBRANCH   3  19
BRANCH   2  21
ATOM     21  O5  UNL     1      -9.551  31.443   2.783  0.00  0.00    +0.000 OA
ATOM     22  H14 UNL     1      -9.218  30.675   2.252  0.00  0.00    +0.000 HD
ENDBRANCH   2  21
BRANCH   5  23
ATOM     23  C12 UNL     1     -13.163  31.487  -1.190  0.00  0.00    +0.000 C 
BRANCH  23  24
ATOM     24  O2  UNL     1     -12.919  31.067  -2.504  0.00  0.00    +0.000 OA
ATOM     25  H11 UNL     1     -12.492  30.174  -2.434  0.00  0.00    +0.000 HD
ENDBRANCH  23  24
ENDBRANCH   5  23
TORSDOF 8
ENDMDL
