MODEL 1
REMARK VINA RESULT:      -5.4      0.000      0.000
REMARK  Name = .\Catechins.pdb
REMARK  8 active torsions:
REMARK  status: ('A' for Active; 'I' for Inactive)
REMARK    1  A    between atoms: C3_3  and  O7_19
REMARK    2  A    between atoms: C4_4  and  O6_18
REMARK    3  A    between atoms: C6_6  and  C7_7
REMARK    4  A    between atoms: C8_8  and  O5_17
REMARK    5  A    between atoms: C9_9  and  O4_16
REMARK    6  A    between atoms: C10_10  and  O3_15
REMARK    7  A    between atoms: C11_11  and  C12_13
REMARK    8  A    between atoms: C12_13  and  O2_14
REMARK                            x       y       z     vdW  Elec       q    Type
REMARK                         _______ _______ _______ _____ _____    ______ ____
ROOT
ATOM      1  C7  UNL     1     -15.551  77.504  63.232  0.00  0.00    +0.000 C 
ATOM      2  C8  UNL     1     -16.450  76.294  63.598  0.00  0.00    +0.000 C 
ATOM      3  C9  UNL     1     -17.489  76.676  64.688  0.00  0.00    +0.000 C 
ATOM      4  C10 UNL     1     -16.930  77.780  65.601  0.00  0.00    +0.000 C 
ATOM      5  C11 UNL     1     -16.495  79.023  64.749  0.00  0.00    +0.000 C 
ATOM      6  O1  UNL     1     -16.282  78.707  63.376  0.00  0.00    +0.000 OA
ENDROOT
BRANCH   1  12
ATOM      7  C1  UNL     1     -14.340  78.430  61.204  0.00  0.00    +0.000 A 
ATOM      8  C2  UNL     1     -13.912  78.324  59.878  0.00  0.00    +0.000 A 
ATOM      9  C3  UNL     1     -14.200  77.171  59.134  0.00  0.00    +0.000 A 
ATOM     10  C4  UNL     1     -14.924  76.126  59.722  0.00  0.00    +0.000 A 
ATOM     11  C5  UNL     1     -15.353  76.234  61.053  0.00  0.00    +0.000 A 
ATOM     12  C6  UNL     1     -15.052  77.379  61.809  0.00  0.00    +0.000 A 
BRANCH  10  13
ATOM     13  O6  UNL     1     -15.216  74.985  58.976  0.00  0.00    +0.000 OA
ATOM     14  H15 UNL     1     -15.230  75.004  57.963  0.00  0.00    +0.000 HD
ENDBRANCH  10  13
BRANCH   9  15
ATOM     15  O7  UNL     1     -13.774  77.061  57.813  0.00  0.00    +0.000 OA
ATOM     16  H16 UNL     1     -12.944  76.535  57.564  0.00  0.00    +0.000 HD
ENDBRANCH   9  15
ENDBRANCH   1  12
BRANCH   4  17
ATOM     17  O3  UNL     1     -17.880  78.130  66.579  0.00  0.00    +0.000 OA
ATOM     18  H12 UNL     1     -18.640  77.498  66.488  0.00  0.00    +0.000 HD
ENDBRANCH   4  17
BRANCH   3  19
ATOM     19  O4  UNL     1     -17.848  75.554  65.452  0.00  0.00    +0.000 OA
ATOM     20  H13 UNL     1     -17.086  74.921  65.402  0.00  0.00    +0.000 HD
ENDBRANCH   3  19
BRANCH   2  21
ATOM     21  O5  UNL     1     -15.660  75.197  63.992  0.00  0.00    +0.000 OA
ATOM     22  H14 UNL     1     -15.277  74.792  63.172  0.00  0.00    +0.000 HD
ENDBRANCH   2  21
BRANCH   5  23
ATOM     23  C12 UNL     1     -17.517  80.168  64.812  0.00  0.00    +0.000 C 
BRANCH  23  24
ATOM     24  O2  UNL     1     -17.424  80.820  66.048  0.00  0.00    +0.000 OA
ATOM     25  H11 UNL     1     -16.599  81.370  66.009  0.00  0.00    +0.000 HD
ENDBRANCH  23  24
ENDBRANCH   5  23
TORSDOF 8
ENDMDL
MODEL 2
REMARK VINA RESULT:      -5.0      2.380      6.010
REMARK  Name = .\Catechins.pdb
REMARK  8 active torsions:
REMARK  status: ('A' for Active; 'I' for Inactive)
REMARK    1  A    between atoms: C3_3  and  O7_19
REMARK    2  A    between atoms: C4_4  and  O6_18
REMARK    3  A    between atoms: C6_6  and  C7_7
REMARK    4  A    between atoms: C8_8  and  O5_17
REMARK    5  A    between atoms: C9_9  and  O4_16
REMARK    6  A    between atoms: C10_10  and  O3_15
REMARK    7  A    between atoms: C11_11  and  C12_13
REMARK    8  A    between atoms: C12_13  and  O2_14
REMARK                            x       y       z     vdW  Elec       q    Type
REMARK                         _______ _______ _______ _____ _____    ______ ____
ROOT
ATOM      1  C7  UNL     1     -16.103  78.485  61.011  0.00  0.00    +0.000 C 
ATOM      2  C8  UNL     1     -15.868  77.248  61.917  0.00  0.00    +0.000 C 
ATOM      3  C9  UNL     1     -15.116  76.124  61.151  0.00  0.00    +0.000 C 
ATOM      4  C10 UNL     1     -15.453  76.178  59.651  0.00  0.00    +0.000 C 
ATOM      5  C11 UNL     1     -15.128  77.599  59.070  0.00  0.00    +0.000 C 
ATOM      6  O1  UNL     1     -15.046  78.603  60.076  0.00  0.00    +0.000 OA
ENDROOT
BRANCH   1  12
ATOM      7  C1  UNL     1     -15.225  80.011  62.837  0.00  0.00    +0.000 A 
ATOM      8  C2  UNL     1     -15.327  81.158  63.629  0.00  0.00    +0.000 A 
ATOM      9  C3  UNL     1     -16.396  82.046  63.451  0.00  0.00    +0.000 A 
ATOM     10  C4  UNL     1     -17.369  81.779  62.480  0.00  0.00    +0.000 A 
ATOM     11  C5  UNL     1     -17.266  80.628  61.684  0.00  0.00    +0.000 A 
ATOM     12  C6  UNL     1     -16.187  79.743  61.846  0.00  0.00    +0.000 A 
BRANCH  10  13
ATOM     13  O6  UNL     1     -18.435  82.660  62.312  0.00  0.00    +0.000 OA
ATOM     14  H15 UNL     1     -18.728  83.286  63.053  0.00  0.00    +0.000 HD
ENDBRANCH  10  13
BRANCH   9  15
ATOM     15  O7  UNL     1     -16.500  83.190  64.239  0.00  0.00    +0.000 OA
ATOM     16  H16 UNL     1     -15.780  83.903  64.237  0.00  0.00    +0.000 HD
ENDBRANCH   9  15
ENDBRANCH   1  12
BRANCH   4  17
ATOM     17  O3  UNL     1     -14.760  75.166  58.961  0.00  0.00    +0.000 OA
ATOM     18  H12 UNL     1     -15.040  75.216  58.010  0.00  0.00    +0.000 HD
ENDBRANCH   4  17
BRANCH   3  19
ATOM     19  O4  UNL     1     -15.438  74.861  61.672  0.00  0.00    +0.000 OA
ATOM     20  H13 UNL     1     -14.597  74.482  62.039  0.00  0.00    +0.000 HD
ENDBRANCH   3  19
BRANCH   2  21
ATOM     21  O5  UNL     1     -17.089  76.790  62.447  0.00  0.00    +0.000 OA
ATOM     22  H14 UNL     1     -17.470  77.520  63.000  0.00  0.00    +0.000 HD
ENDBRANCH   2  21
BRANCH   5  23
ATOM     23  C12 UNL     1     -13.813  77.624  58.276  0.00  0.00    +0.000 C 
BRANCH  23  24
ATOM     24  O2  UNL     1     -13.337  78.939  58.190  0.00  0.00    +0.000 OA
ATOM     25  H11 UNL     1     -14.066  79.520  58.531  0.00  0.00    +0.000 HD
ENDBRANCH  23  24
ENDBRANCH   5  23
TORSDOF 8
ENDMDL
MODEL 3
REMARK VINA RESULT:      -5.0      1.455      6.438
REMARK  Name = .\Catechins.pdb
REMARK  8 active torsions:
REMARK  status: ('A' for Active; 'I' for Inactive)
REMARK    1  A    between atoms: C3_3  and  O7_19
REMARK    2  A    between atoms: C4_4  and  O6_18
REMARK    3  A    between atoms: C6_6  and  C7_7
REMARK    4  A    between atoms: C8_8  and  O5_17
REMARK    5  A    between atoms: C9_9  and  O4_16
REMARK    6  A    between atoms: C10_10  and  O3_15
REMARK    7  A    between atoms: C11_11  and  C12_13
REMARK    8  A    between atoms: C12_13  and  O2_14
REMARK                            x       y       z     vdW  Elec       q    Type
REMARK                         _______ _______ _______ _____ _____    ______ ____
ROOT
ATOM      1  C7  UNL     1     -15.411  77.609  62.269  0.00  0.00    +0.000 C 
ATOM      2  C8  UNL     1     -14.869  78.734  61.349  0.00  0.00    +0.000 C 
ATOM      3  C9  UNL     1     -14.763  78.254  59.875  0.00  0.00    +0.000 C 
ATOM      4  C10 UNL     1     -14.489  76.741  59.821  0.00  0.00    +0.000 C 
ATOM      5  C11 UNL     1     -15.595  75.959  60.612  0.00  0.00    +0.000 C 
ATOM      6  O1  UNL     1     -16.298  76.779  61.541  0.00  0.00    +0.000 OA
ENDROOT
BRANCH   1  12
ATOM      7  C1  UNL     1     -16.487  79.561  63.479  0.00  0.00    +0.000 A 
ATOM      8  C2  UNL     1     -17.122  80.111  64.596  0.00  0.00    +0.000 A 
ATOM      9  C3  UNL     1     -17.399  79.312  65.714  0.00  0.00    +0.000 A 
ATOM     10  C4  UNL     1     -17.033  77.960  65.712  0.00  0.00    +0.000 A 
ATOM     11  C5  UNL     1     -16.396  77.409  64.590  0.00  0.00    +0.000 A 
ATOM     12  C6  UNL     1     -16.132  78.201  63.460  0.00  0.00    +0.000 A 
BRANCH  10  13
ATOM     13  O6  UNL     1     -17.303  77.171  66.829  0.00  0.00    +0.000 OA
ATOM     14  H15 UNL     1     -17.165  76.167  66.815  0.00  0.00    +0.000 HD
ENDBRANCH  10  13
BRANCH   9  15
ATOM     15  O7  UNL     1     -18.032  79.856  66.829  0.00  0.00    +0.000 OA
ATOM     16  H16 UNL     1     -19.040  79.825  66.935  0.00  0.00    +0.000 HD
ENDBRANCH   9  15
ENDBRANCH   1  12
BRANCH   4  17
ATOM     17  O3  UNL     1     -14.406  76.310  58.484  0.00  0.00    +0.000 OA
ATOM     18  H12 UNL     1     -13.453  76.375  58.215  0.00  0.00    +0.000 HD
ENDBRANCH   4  17
BRANCH   3  19
ATOM     19  O4  UNL     1     -13.753  78.952  59.193  0.00  0.00    +0.000 OA
ATOM     20  H13 UNL     1     -13.182  78.268  58.756  0.00  0.00    +0.000 HD
ENDBRANCH   3  19
BRANCH   2  21
ATOM     21  O5  UNL     1     -13.635  79.211  61.833  0.00  0.00    +0.000 OA
ATOM     22  H14 UNL     1     -12.995  79.213  61.075  0.00  0.00    +0.000 HD
ENDBRANCH   2  21
BRANCH   5  23
ATOM     23  C12 UNL     1     -16.633  75.309  59.685  0.00  0.00    +0.000 C 
BRANCH  23  24
ATOM     24  O2  UNL     1     -16.056  74.222  59.015  0.00  0.00    +0.000 OA
ATOM     25  H11 UNL     1     -16.059  74.459  58.051  0.00  0.00    +0.000 HD
ENDBRANCH  23  24
ENDBRANCH   5  23
TORSDOF 8
ENDMDL
MODEL 4
REMARK VINA RESULT:      -4.9      1.770      6.294
REMARK  Name = .\Catechins.pdb
REMARK  8 active torsions:
REMARK  status: ('A' for Active; 'I' for Inactive)
REMARK    1  A    between atoms: C3_3  and  O7_19
REMARK    2  A    between atoms: C4_4  and  O6_18
REMARK    3  A    between atoms: C6_6  and  C7_7
REMARK    4  A    between atoms: C8_8  and  O5_17
REMARK    5  A    between atoms: C9_9  and  O4_16
REMARK    6  A    between atoms: C10_10  and  O3_15
REMARK    7  A    between atoms: C11_11  and  C12_13
REMARK    8  A    between atoms: C12_13  and  O2_14
REMARK                            x       y       z     vdW  Elec       q    Type
REMARK                         _______ _______ _______ _____ _____    ______ ____
ROOT
ATOM      1  C7  UNL     1     -15.526  77.780  62.276  0.00  0.00    +0.000 C 
ATOM      2  C8  UNL     1     -15.579  78.509  60.907  0.00  0.00    +0.000 C 
ATOM      3  C9  UNL     1     -15.688  77.496  59.734  0.00  0.00    +0.000 C 
ATOM      4  C10 UNL     1     -14.996  76.172  60.102  0.00  0.00    +0.000 C 
ATOM      5  C11 UNL     1     -15.598  75.593  61.430  0.00  0.00    +0.000 C 
ATOM      6  O1  UNL     1     -16.271  76.578  62.209  0.00  0.00    +0.000 OA
ENDROOT
BRANCH   1  12
ATOM      7  C1  UNL     1     -16.268  78.169  64.670  0.00  0.00    +0.000 A 
ATOM      8  C2  UNL     1     -16.817  78.980  65.666  0.00  0.00    +0.000 A 
ATOM      9  C3  UNL     1     -17.203  80.295  65.372  0.00  0.00    +0.000 A 
ATOM     10  C4  UNL     1     -17.043  80.793  64.072  0.00  0.00    +0.000 A 
ATOM     11  C5  UNL     1     -16.491  79.978  63.073  0.00  0.00    +0.000 A 
ATOM     12  C6  UNL     1     -16.086  78.665  63.367  0.00  0.00    +0.000 A 
BRANCH  10  13
ATOM     13  O6  UNL     1     -17.436  82.099  63.782  0.00  0.00    +0.000 OA
ATOM     14  H15 UNL     1     -18.388  82.411  63.931  0.00  0.00    +0.000 HD
ENDBRANCH  10  13
BRANCH   9  15
ATOM     15  O7  UNL     1     -17.751  81.107  66.362  0.00  0.00    +0.000 OA
ATOM     16  H16 UNL     1     -18.191  81.993  66.139  0.00  0.00    +0.000 HD
ENDBRANCH   9  15
ENDBRANCH   1  12
BRANCH   4  17
ATOM     17  O3  UNL     1     -15.108  75.254  59.041  0.00  0.00    +0.000 OA
ATOM     18  H12 UNL     1     -16.057  74.965  59.002  0.00  0.00    +0.000 HD
ENDBRANCH   4  17
BRANCH   3  19
ATOM     19  O4  UNL     1     -15.124  78.025  58.562  0.00  0.00    +0.000 OA
ATOM     20  H13 UNL     1     -14.442  78.686  58.848  0.00  0.00    +0.000 HD
ENDBRANCH   3  19
BRANCH   2  21
ATOM     21  O5  UNL     1     -14.466  79.358  60.761  0.00  0.00    +0.000 OA
ATOM     22  H14 UNL     1     -13.654  78.831  60.975  0.00  0.00    +0.000 HD
ENDBRANCH   2  21
BRANCH   5  23
ATOM     23  C12 UNL     1     -16.584  74.442  61.179  0.00  0.00    +0.000 C 
BRANCH  23  24
ATOM     24  O2  UNL     1     -17.732  74.932  60.542  0.00  0.00    +0.000 OA
ATOM     25  H11 UNL     1     -17.920  75.816  60.952  0.00  0.00    +0.000 HD
ENDBRANCH  23  24
ENDBRANCH   5  23
TORSDOF 8
ENDMDL
MODEL 5
REMARK VINA RESULT:      -4.9      2.508      5.535
REMARK  Name = .\Catechins.pdb
REMARK  8 active torsions:
REMARK  status: ('A' for Active; 'I' for Inactive)
REMARK    1  A    between atoms: C3_3  and  O7_19
REMARK    2  A    between atoms: C4_4  and  O6_18
REMARK    3  A    between atoms: C6_6  and  C7_7
REMARK    4  A    between atoms: C8_8  and  O5_17
REMARK    5  A    between atoms: C9_9  and  O4_16
REMARK    6  A    between atoms: C10_10  and  O3_15
REMARK    7  A    between atoms: C11_11  and  C12_13
REMARK    8  A    between atoms: C12_13  and  O2_14
REMARK                            x       y       z     vdW  Elec       q    Type
REMARK                         _______ _______ _______ _____ _____    ______ ____
ROOT
ATOM      1  C7  UNL     1     -15.634  78.541  62.258  0.00  0.00    +0.000 C 
ATOM      2  C8  UNL     1     -15.677  78.196  60.746  0.00  0.00    +0.000 C 
ATOM      3  C9  UNL     1     -15.966  76.685  60.522  0.00  0.00    +0.000 C 
ATOM      4  C10 UNL     1     -15.413  75.853  61.692  0.00  0.00    +0.000 C 
ATOM      5  C11 UNL     1     -16.004  76.365  63.052  0.00  0.00    +0.000 C 
ATOM      6  O1  UNL     1     -16.516  77.691  62.970  0.00  0.00    +0.000 OA
ENDROOT
BRANCH   1  12
ATOM      7  C1  UNL     1     -15.431  80.740  63.506  0.00  0.00    +0.000 A 
ATOM      8  C2  UNL     1     -15.823  82.062  63.731  0.00  0.00    +0.000 A 
ATOM      9  C3  UNL     1     -16.825  82.644  62.942  0.00  0.00    +0.000 A 
ATOM     10  C4  UNL     1     -17.438  81.894  61.930  0.00  0.00    +0.000 A 
ATOM     11  C5  UNL     1     -17.044  80.567  61.706  0.00  0.00    +0.000 A 
ATOM     12  C6  UNL     1     -16.028  79.984  62.482  0.00  0.00    +0.000 A 
BRANCH  10  13
ATOM     13  O6  UNL     1     -18.440  82.474  61.154  0.00  0.00    +0.000 OA
ATOM     14  H15 UNL     1     -19.242  81.941  60.838  0.00  0.00    +0.000 HD
ENDBRANCH  10  13
BRANCH   9  15
ATOM     15  O7  UNL     1     -17.218  83.962  63.162  0.00  0.00    +0.000 OA
ATOM     16  H16 UNL     1     -17.130  84.398  64.073  0.00  0.00    +0.000 HD
ENDBRANCH   9  15
ENDBRANCH   1  12
BRANCH   4  17
ATOM     17  O3  UNL     1     -15.687  74.488  61.489  0.00  0.00    +0.000 OA
ATOM     18  H12 UNL     1     -15.922  74.375  60.532  0.00  0.00    +0.000 HD
ENDBRANCH   4  17
BRANCH   3  19
ATOM     19  O4  UNL     1     -15.410  76.244  59.311  0.00  0.00    +0.000 OA
ATOM     20  H13 UNL     1     -15.814  76.799  58.594  0.00  0.00    +0.000 HD
ENDBRANCH   3  19
BRANCH   2  21
ATOM     21  O5  UNL     1     -14.483  78.597  60.118  0.00  0.00    +0.000 OA
ATOM     22  H14 UNL     1     -14.410  78.099  59.263  0.00  0.00    +0.000 HD
ENDBRANCH   2  21
BRANCH   5  23
ATOM     23  C12 UNL     1     -17.128  75.463  63.583  0.00  0.00    +0.000 C 
BRANCH  23  24
ATOM     24  O2  UNL     1     -16.577  74.357  64.243  0.00  0.00    +0.000 OA
ATOM     25  H11 UNL     1     -15.763  74.688  64.705  0.00  0.00    +0.000 HD
ENDBRANCH  23  24
ENDBRANCH   5  23
TORSDOF 8
ENDMDL
MODEL 6
REMARK VINA RESULT:      -4.9      1.801      6.045
REMARK  Name = .\Catechins.pdb
REMARK  8 active torsions:
REMARK  status: ('A' for Active; 'I' for Inactive)
REMARK    1  A    between atoms: C3_3  and  O7_19
REMARK    2  A    between atoms: C4_4  and  O6_18
REMARK    3  A    between atoms: C6_6  and  C7_7
REMARK    4  A    between atoms: C8_8  and  O5_17
REMARK    5  A    between atoms: C9_9  and  O4_16
REMARK    6  A    between atoms: C10_10  and  O3_15
REMARK    7  A    between atoms: C11_11  and  C12_13
REMARK    8  A    between atoms: C12_13  and  O2_14
REMARK                            x       y       z     vdW  Elec       q    Type
REMARK                         _______ _______ _______ _____ _____    ______ ____
ROOT
ATOM      1  C7  UNL     1     -16.529  78.225  61.354  0.00  0.00    +0.000 C 
ATOM      2  C8  UNL     1     -16.364  76.840  62.032  0.00  0.00    +0.000 C 
ATOM      3  C9  UNL     1     -15.472  75.898  61.177  0.00  0.00    +0.000 C 
ATOM      4  C10 UNL     1     -15.612  76.235  59.683  0.00  0.00    +0.000 C 
ATOM      5  C11 UNL     1     -15.273  77.746  59.432  0.00  0.00    +0.000 C 
ATOM      6  O1  UNL     1     -15.365  78.538  60.612  0.00  0.00    +0.000 OA
ENDROOT
BRANCH   1  12
ATOM      7  C1  UNL     1     -17.127  80.602  62.008  0.00  0.00    +0.000 A 
ATOM      8  C2  UNL     1     -17.317  81.597  62.971  0.00  0.00    +0.000 A 
ATOM      9  C3  UNL     1     -17.146  81.304  64.331  0.00  0.00    +0.000 A 
ATOM     10  C4  UNL     1     -16.777  80.011  64.723  0.00  0.00    +0.000 A 
ATOM     11  C5  UNL     1     -16.586  79.014  63.757  0.00  0.00    +0.000 A 
ATOM     12  C6  UNL     1     -16.774  79.297  62.393  0.00  0.00    +0.000 A 
BRANCH  10  13
ATOM     13  O6  UNL     1     -16.600  79.727  66.076  0.00  0.00    +0.000 OA
ATOM     14  H15 UNL     1     -16.271  80.430  66.728  0.00  0.00    +0.000 HD
ENDBRANCH  10  13
BRANCH   9  15
ATOM     15  O7  UNL     1     -17.336  82.293  65.294  0.00  0.00    +0.000 OA
ATOM     16  H16 UNL     1     -16.568  82.865  65.625  0.00  0.00    +0.000 HD
ENDBRANCH   9  15
ENDBRANCH   1  12
BRANCH   4  17
ATOM     17  O3  UNL     1     -14.793  75.386  58.915  0.00  0.00    +0.000 OA
ATOM     18  H12 UNL     1     -14.701  74.535  59.417  0.00  0.00    +0.000 HD
ENDBRANCH   4  17
BRANCH   3  19
ATOM     19  O4  UNL     1     -15.807  74.552  61.402  0.00  0.00    +0.000 OA
ATOM     20  H13 UNL     1     -15.163  74.207  62.072  0.00  0.00    +0.000 HD
ENDBRANCH   3  19
BRANCH   2  21
ATOM     21  O5  UNL     1     -17.624  76.269  62.295  0.00  0.00    +0.000 OA
ATOM     22  H14 UNL     1     -18.105  76.191  61.432  0.00  0.00    +0.000 HD
ENDBRANCH   2  21
BRANCH   5  23
ATOM     23  C12 UNL     1     -13.868  77.945  58.844  0.00  0.00    +0.000 C 
BRANCH  23  24
ATOM     24  O2  UNL     1     -13.904  77.760  57.455  0.00  0.00    +0.000 OA
ATOM     25  H11 UNL     1     -14.627  77.102  57.283  0.00  0.00    +0.000 HD
ENDBRANCH  23  24
ENDBRANCH   5  23
TORSDOF 8
ENDMDL
MODEL 7
REMARK VINA RESULT:      -4.7      2.021      6.237
REMARK  Name = .\Catechins.pdb
REMARK  8 active torsions:
REMARK  status: ('A' for Active; 'I' for Inactive)
REMARK    1  A    between atoms: C3_3  and  O7_19
REMARK    2  A    between atoms: C4_4  and  O6_18
REMARK    3  A    between atoms: C6_6  and  C7_7
REMARK    4  A    between atoms: C8_8  and  O5_17
REMARK    5  A    between atoms: C9_9  and  O4_16
REMARK    6  A    between atoms: C10_10  and  O3_15
REMARK    7  A    between atoms: C11_11  and  C12_13
REMARK    8  A    between atoms: C12_13  and  O2_14
REMARK                            x       y       z     vdW  Elec       q    Type
REMARK                         _______ _______ _______ _____ _____    ______ ____
ROOT
ATOM      1  C7  UNL     1     -15.997  78.215  62.135  0.00  0.00    +0.000 C 
ATOM      2  C8  UNL     1     -14.833  78.620  61.192  0.00  0.00    +0.000 C 
ATOM      3  C9  UNL     1     -14.742  77.667  59.969  0.00  0.00    +0.000 C 
ATOM      4  C10 UNL     1     -15.241  76.261  60.345  0.00  0.00    +0.000 C 
ATOM      5  C11 UNL     1     -16.699  76.336  60.920  0.00  0.00    +0.000 C 
ATOM      6  O1  UNL     1     -17.047  77.638  61.381  0.00  0.00    +0.000 OA
ENDROOT
BRANCH   1  12
ATOM      7  C1  UNL     1     -16.758  80.634  62.214  0.00  0.00    +0.000 A 
ATOM      8  C2  UNL     1     -17.203  81.756  62.918  0.00  0.00    +0.000 A 
ATOM      9  C3  UNL     1     -17.398  81.688  64.304  0.00  0.00    +0.000 A 
ATOM     10  C4  UNL     1     -17.140  80.491  64.985  0.00  0.00    +0.000 A 
ATOM     11  C5  UNL     1     -16.694  79.365  64.278  0.00  0.00    +0.000 A 
ATOM     12  C6  UNL     1     -16.514  79.423  62.885  0.00  0.00    +0.000 A 
BRANCH  10  13
ATOM     13  O6  UNL     1     -17.328  80.430  66.365  0.00  0.00    +0.000 OA
ATOM     14  H15 UNL     1     -16.543  80.413  67.006  0.00  0.00    +0.000 HD
ENDBRANCH  10  13
BRANCH   9  15
ATOM     15  O7  UNL     1     -17.842  82.804  65.009  0.00  0.00    +0.000 OA
ATOM     16  H16 UNL     1     -17.667  82.909  66.002  0.00  0.00    +0.000 HD
ENDBRANCH   9  15
ENDBRANCH   1  12
BRANCH   4  17
ATOM     17  O3  UNL     1     -15.167  75.405  59.231  0.00  0.00    +0.000 OA
ATOM     18  H12 UNL     1     -16.087  75.078  59.052  0.00  0.00    +0.000 HD
ENDBRANCH   4  17
BRANCH   3  19
ATOM     19  O4  UNL     1     -13.426  77.598  59.485  0.00  0.00    +0.000 OA
ATOM     20  H13 UNL     1     -12.891  77.136  60.181  0.00  0.00    +0.000 HD
ENDBRANCH   3  19
BRANCH   2  21
ATOM     21  O5  UNL     1     -13.620  78.672  61.905  0.00  0.00    +0.000 OA
ATOM     22  H14 UNL     1     -12.920  79.003  61.285  0.00  0.00    +0.000 HD
ENDBRANCH   2  21
BRANCH   5  23
ATOM     23  C12 UNL     1     -17.759  75.904  59.896  0.00  0.00    +0.000 C 
BRANCH  23  24
ATOM     24  O2  UNL     1     -17.741  76.776  58.799  0.00  0.00    +0.000 OA
ATOM     25  H11 UNL     1     -18.626  76.684  58.359  0.00  0.00    +0.000 HD
ENDBRANCH  23  24
ENDBRANCH   5  23
TORSDOF 8
ENDMDL
MODEL 8
REMARK VINA RESULT:      -4.6      2.194      6.317
REMARK  Name = .\Catechins.pdb
REMARK  8 active torsions:
REMARK  status: ('A' for Active; 'I' for Inactive)
REMARK    1  A    between atoms: C3_3  and  O7_19
REMARK    2  A    between atoms: C4_4  and  O6_18
REMARK    3  A    between atoms: C6_6  and  C7_7
REMARK    4  A    between atoms: C8_8  and  O5_17
REMARK    5  A    between atoms: C9_9  and  O4_16
REMARK    6  A    between atoms: C10_10  and  O3_15
REMARK    7  A    between atoms: C11_11  and  C12_13
REMARK    8  A    between atoms: C12_13  and  O2_14
REMARK                            x       y       z     vdW  Elec       q    Type
REMARK                         _______ _______ _______ _____ _____    ______ ____
ROOT
ATOM      1  C7  UNL     1     -15.861  79.661  61.844  0.00  0.00    +0.000 C 
ATOM      2  C8  UNL     1     -16.894  78.841  61.027  0.00  0.00    +0.000 C 
ATOM      3  C9  UNL     1     -16.255  77.548  60.450  0.00  0.00    +0.000 C 
ATOM      4  C10 UNL     1     -14.756  77.762  60.180  0.00  0.00    +0.000 C 
ATOM      5  C11 UNL     1     -14.031  78.238  61.488  0.00  0.00    +0.000 C 
ATOM      6  O1  UNL     1     -14.926  78.787  62.450  0.00  0.00    +0.000 OA
ENDROOT
BRANCH   1  12
ATOM      7  C1  UNL     1     -17.080  81.748  62.611  0.00  0.00    +0.000 A 
ATOM      8  C2  UNL     1     -17.693  82.513  63.608  0.00  0.00    +0.000 A 
ATOM      9  C3  UNL     1     -17.783  82.023  64.918  0.00  0.00    +0.000 A 
ATOM     10  C4  UNL     1     -17.250  80.765  65.229  0.00  0.00    +0.000 A 
ATOM     11  C5  UNL     1     -16.635  79.999  64.228  0.00  0.00    +0.000 A 
ATOM     12  C6  UNL     1     -16.558  80.477  62.909  0.00  0.00    +0.000 A 
BRANCH  10  13
ATOM     13  O6  UNL     1     -17.333  80.285  66.535  0.00  0.00    +0.000 OA
ATOM     14  H15 UNL     1     -18.217  79.998  66.938  0.00  0.00    +0.000 HD
ENDBRANCH  10  13
BRANCH   9  15
ATOM     15  O7  UNL     1     -18.394  82.781  65.914  0.00  0.00    +0.000 OA
ATOM     16  H16 UNL     1     -19.366  82.643  66.165  0.00  0.00    +0.000 HD
ENDBRANCH   9  15
ENDBRANCH   1  12
BRANCH   4  17
ATOM     17  O3  UNL     1     -14.181  76.584  59.669  0.00  0.00    +0.000 OA
ATOM     18  H12 UNL     1     -14.860  75.865  59.755  0.00  0.00    +0.000 HD
ENDBRANCH   4  17
BRANCH   3  19
ATOM     19  O4  UNL     1     -16.905  77.152  59.269  0.00  0.00    +0.000 OA
ATOM     20  H13 UNL     1     -16.539  77.717  58.541  0.00  0.00    +0.000 HD
ENDBRANCH   3  19
BRANCH   2  21
ATOM     21  O5  UNL     1     -17.462  79.638  60.015  0.00  0.00    +0.000 OA
ATOM     22  H14 UNL     1     -18.348  79.947  60.337  0.00  0.00    +0.000 HD
ENDBRANCH   2  21
BRANCH   5  23
ATOM     23  C12 UNL     1     -13.246  77.108  62.171  0.00  0.00    +0.000 C 
BRANCH  23  24
ATOM     24  O2  UNL     1     -14.138  76.189  62.742  0.00  0.00    +0.000 OA
ATOM     25  H11 UNL     1     -13.586  75.575  63.293  0.00  0.00    +0.000 HD
ENDBRANCH  23  24
ENDBRANCH   5  23
TORSDOF 8
ENDMDL
MODEL 9
REMARK VINA RESULT:      -4.6      1.885      6.219
REMARK  Name = .\Catechins.pdb
REMARK  8 active torsions:
REMARK  status: ('A' for Active; 'I' for Inactive)
REMARK    1  A    between atoms: C3_3  and  O7_19
REMARK    2  A    between atoms: C4_4  and  O6_18
REMARK    3  A    between atoms: C6_6  and  C7_7
REMARK    4  A    between atoms: C8_8  and  O5_17
REMARK    5  A    between atoms: C9_9  and  O4_16
REMARK    6  A    between atoms: C10_10  and  O3_15
REMARK    7  A    between atoms: C11_11  and  C12_13
REMARK    8  A    between atoms: C12_13  and  O2_14
REMARK                            x       y       z     vdW  Elec       q    Type
REMARK                         _______ _______ _______ _____ _____    ______ ____
ROOT
ATOM      1  C7  UNL     1     -15.876  77.695  62.494  0.00  0.00    +0.000 C 
ATOM      2  C8  UNL     1     -14.834  78.321  61.530  0.00  0.00    +0.000 C 
ATOM      3  C9  UNL     1     -14.789  77.558  60.178  0.00  0.00    +0.000 C 
ATOM      4  C10 UNL     1     -15.152  76.078  60.383  0.00  0.00    +0.000 C 
ATOM      5  C11 UNL     1     -16.553  75.952  61.077  0.00  0.00    +0.000 C 
ATOM      6  O1  UNL     1     -16.948  77.144  61.750  0.00  0.00    +0.000 OA
ENDROOT
BRANCH   1  12
ATOM      7  C1  UNL     1     -16.203  78.611  64.836  0.00  0.00    +0.000 A 
ATOM      8  C2  UNL     1     -16.724  79.561  65.719  0.00  0.00    +0.000 A 
ATOM      9  C3  UNL     1     -17.464  80.646  65.230  0.00  0.00    +0.000 A 
ATOM     10  C4  UNL     1     -17.687  80.774  63.853  0.00  0.00    +0.000 A 
ATOM     11  C5  UNL     1     -17.163  79.820  62.968  0.00  0.00    +0.000 A 
ATOM     12  C6  UNL     1     -16.405  78.740  63.451  0.00  0.00    +0.000 A 
BRANCH  10  13
ATOM     13  O6  UNL     1     -18.430  81.850  63.372  0.00  0.00    +0.000 OA
ATOM     14  H15 UNL     1     -18.877  81.822  62.463  0.00  0.00    +0.000 HD
ENDBRANCH  10  13
BRANCH   9  15
ATOM     15  O7  UNL     1     -17.985  81.596  66.106  0.00  0.00    +0.000 OA
ATOM     16  H16 UNL     1     -17.383  82.158  66.698  0.00  0.00    +0.000 HD
ENDBRANCH   9  15
ENDBRANCH   1  12
BRANCH   4  17
ATOM     17  O3  UNL     1     -15.121  75.394  59.154  0.00  0.00    +0.000 OA
ATOM     18  H12 UNL     1     -16.034  75.040  58.992  0.00  0.00    +0.000 HD
ENDBRANCH   4  17
BRANCH   3  19
ATOM     19  O4  UNL     1     -13.520  77.665  59.585  0.00  0.00    +0.000 OA
ATOM     20  H13 UNL     1     -12.895  77.151  60.158  0.00  0.00    +0.000 HD
ENDBRANCH   3  19
BRANCH   2  21
ATOM     21  O5  UNL     1     -13.568  78.372  62.143  0.00  0.00    +0.000 OA
ATOM     22  H14 UNL     1     -12.886  78.413  61.424  0.00  0.00    +0.000 HD
ENDBRANCH   2  21
BRANCH   5  23
ATOM     23  C12 UNL     1     -17.670  75.582  60.089  0.00  0.00    +0.000 C 
BRANCH  23  24
ATOM     24  O2  UNL     1     -17.714  76.522  59.051  0.00  0.00    +0.000 OA
ATOM     25  H11 UNL     1     -18.675  76.661  58.845  0.00  0.00    +0.000 HD
ENDBRANCH  23  24
ENDBRANCH   5  23
TORSDOF 8
ENDMDL
