MODEL 1
REMARK VINA RESULT:      -4.3      0.000      0.000
REMARK  Name = .\Catechins.pdb
REMARK  8 active torsions:
REMARK  status: ('A' for Active; 'I' for Inactive)
REMARK    1  A    between atoms: C3_3  and  O7_19
REMARK    2  A    between atoms: C4_4  and  O6_18
REMARK    3  A    between atoms: C6_6  and  C7_7
REMARK    4  A    between atoms: C8_8  and  O5_17
REMARK    5  A    between atoms: C9_9  and  O4_16
REMARK    6  A    between atoms: C10_10  and  O3_15
REMARK    7  A    between atoms: C11_11  and  C12_13
REMARK    8  A    between atoms: C12_13  and  O2_14
REMARK                            x       y       z     vdW  Elec       q    Type
REMARK                         _______ _______ _______ _____ _____    ______ ____
ROOT
ATOM      1  C7  UNL     1      -8.284  44.925 -33.098  0.00  0.00    +0.000 C 
ATOM      2  C8  UNL     1      -9.039  44.619 -31.778  0.00  0.00    +0.000 C 
ATOM      3  C9  UNL     1     -10.578  44.672 -31.985  0.00  0.00    +0.000 C 
ATOM      4  C10 UNL     1     -10.936  45.672 -33.097  0.00  0.00    +0.000 C 
ATOM      5  C11 UNL     1     -10.182  45.305 -34.423  0.00  0.00    +0.000 C 
ATOM      6  O1  UNL     1      -9.046  44.474 -34.203  0.00  0.00    +0.000 OA
ENDROOT
BRANCH   1  12
ATOM      7  C1  UNL     1      -6.732  43.042 -32.406  0.00  0.00    +0.000 A 
ATOM      8  C2  UNL     1      -5.472  42.437 -32.384  0.00  0.00    +0.000 A 
ATOM      9  C3  UNL     1      -4.392  43.035 -33.049  0.00  0.00    +0.000 A 
ATOM     10  C4  UNL     1      -4.577  44.244 -33.730  0.00  0.00    +0.000 A 
ATOM     11  C5  UNL     1      -5.841  44.850 -33.752  0.00  0.00    +0.000 A 
ATOM     12  C6  UNL     1      -6.932  44.247 -33.102  0.00  0.00    +0.000 A 
BRANCH  10  13
ATOM     13  O6  UNL     1      -3.498  44.839 -34.383  0.00  0.00    +0.000 OA
ATOM     14  H15 UNL     1      -2.564  44.821 -33.989  0.00  0.00    +0.000 HD
ENDBRANCH  10  13
BRANCH   9  15
ATOM     15  O7  UNL     1      -3.135  42.435 -33.031  0.00  0.00    +0.000 OA
ATOM     16  H16 UNL     1      -2.999  41.496 -32.673  0.00  0.00    +0.000 HD
ENDBRANCH   9  15
ENDBRANCH   1  12
BRANCH   4  17
ATOM     17  O3  UNL     1     -12.330  45.708 -33.289  0.00  0.00    +0.000 OA
ATOM     18  H12 UNL     1     -12.531  46.515 -33.830  0.00  0.00    +0.000 HD
ENDBRANCH   4  17
BRANCH   3  19
ATOM     19  O4  UNL     1     -11.231  45.023 -30.793  0.00  0.00    +0.000 OA
ATOM     20  H13 UNL     1     -12.185  45.170 -31.024  0.00  0.00    +0.000 HD
ENDBRANCH   3  19
BRANCH   2  21
ATOM     21  O5  UNL     1      -8.619  45.494 -30.758  0.00  0.00    +0.000 OA
ATOM     22  H14 UNL     1      -7.697  45.789 -30.975  0.00  0.00    +0.000 HD
ENDBRANCH   2  21
BRANCH   5  23
ATOM     23  C12 UNL     1     -11.088  44.597 -35.441  0.00  0.00    +0.000 C 
BRANCH  23  24
ATOM     24  O2  UNL     1     -11.538  45.518 -36.397  0.00  0.00    +0.000 OA
ATOM     25  H11 UNL     1     -11.221  46.408 -36.093  0.00  0.00    +0.000 HD
ENDBRANCH  23  24
ENDBRANCH   5  23
TORSDOF 8
ENDMDL
MODEL 2
REMARK VINA RESULT:      -4.1      1.184      2.667
REMARK  Name = .\Catechins.pdb
REMARK  8 active torsions:
REMARK  status: ('A' for Active; 'I' for Inactive)
REMARK    1  A    between atoms: C3_3  and  O7_19
REMARK    2  A    between atoms: C4_4  and  O6_18
REMARK    3  A    between atoms: C6_6  and  C7_7
REMARK    4  A    between atoms: C8_8  and  O5_17
REMARK    5  A    between atoms: C9_9  and  O4_16
REMARK    6  A    between atoms: C10_10  and  O3_15
REMARK    7  A    between atoms: C11_11  and  C12_13
REMARK    8  A    between atoms: C12_13  and  O2_14
REMARK                            x       y       z     vdW  Elec       q    Type
REMARK                         _______ _______ _______ _____ _____    ______ ____
ROOT
ATOM      1  C7  UNL     1      -8.647  43.964 -33.409  0.00  0.00    +0.000 C 
ATOM      2  C8  UNL     1      -8.745  45.234 -34.296  0.00  0.00    +0.000 C 
ATOM      3  C9  UNL     1      -9.943  46.126 -33.869  0.00  0.00    +0.000 C 
ATOM      4  C10 UNL     1     -11.073  45.265 -33.281  0.00  0.00    +0.000 C 
ATOM      5  C11 UNL     1     -10.535  44.401 -32.087  0.00  0.00    +0.000 C 
ATOM      6  O1  UNL     1      -9.118  44.252 -32.105  0.00  0.00    +0.000 OA
ENDROOT
BRANCH   1  12
ATOM      7  C1  UNL     1      -6.924  42.159 -32.953  0.00  0.00    +0.000 A 
ATOM      8  C2  UNL     1      -5.599  41.727 -32.854  0.00  0.00    +0.000 A 
ATOM      9  C3  UNL     1      -4.546  42.612 -33.127  0.00  0.00    +0.000 A 
ATOM     10  C4  UNL     1      -4.826  43.934 -33.494  0.00  0.00    +0.000 A 
ATOM     11  C5  UNL     1      -6.156  44.367 -33.592  0.00  0.00    +0.000 A 
ATOM     12  C6  UNL     1      -7.216  43.480 -33.337  0.00  0.00    +0.000 A 
BRANCH  10  13
ATOM     13  O6  UNL     1      -3.776  44.813 -33.756  0.00  0.00    +0.000 OA
ATOM     14  H15 UNL     1      -3.568  45.124 -34.698  0.00  0.00    +0.000 HD
ENDBRANCH  10  13
BRANCH   9  15
ATOM     15  O7  UNL     1      -3.224  42.185 -33.032  0.00  0.00    +0.000 OA
ATOM     16  H16 UNL     1      -2.766  41.700 -33.795  0.00  0.00    +0.000 HD
ENDBRANCH   9  15
ENDBRANCH   1  12
BRANCH   4  17
ATOM     17  O3  UNL     1     -12.150  46.079 -32.885  0.00  0.00    +0.000 OA
ATOM     18  H12 UNL     1     -11.833  46.636 -32.127  0.00  0.00    +0.000 HD
ENDBRANCH   4  17
BRANCH   3  19
ATOM     19  O4  UNL     1     -10.423  46.873 -34.957  0.00  0.00    +0.000 OA
ATOM     20  H13 UNL     1     -10.576  47.795 -34.623  0.00  0.00    +0.000 HD
ENDBRANCH   3  19
BRANCH   2  21
ATOM     21  O5  UNL     1      -8.819  44.876 -35.656  0.00  0.00    +0.000 OA
ATOM     22  H14 UNL     1      -8.952  43.895 -35.703  0.00  0.00    +0.000 HD
ENDBRANCH   2  21
BRANCH   5  23
ATOM     23  C12 UNL     1     -10.926  44.979 -30.718  0.00  0.00    +0.000 C 
BRANCH  23  24
ATOM     24  O2  UNL     1     -12.227  44.579 -30.389  0.00  0.00    +0.000 OA
ATOM     25  H11 UNL     1     -12.145  43.677 -29.983  0.00  0.00    +0.000 HD
ENDBRANCH  23  24
ENDBRANCH   5  23
TORSDOF 8
ENDMDL
MODEL 3
REMARK VINA RESULT:      -3.9      2.161      5.839
REMARK  Name = .\Catechins.pdb
REMARK  8 active torsions:
REMARK  status: ('A' for Active; 'I' for Inactive)
REMARK    1  A    between atoms: C3_3  and  O7_19
REMARK    2  A    between atoms: C4_4  and  O6_18
REMARK    3  A    between atoms: C6_6  and  C7_7
REMARK    4  A    between atoms: C8_8  and  O5_17
REMARK    5  A    between atoms: C9_9  and  O4_16
REMARK    6  A    between atoms: C10_10  and  O3_15
REMARK    7  A    between atoms: C11_11  and  C12_13
REMARK    8  A    between atoms: C12_13  and  O2_14
REMARK                            x       y       z     vdW  Elec       q    Type
REMARK                         _______ _______ _______ _____ _____    ______ ____
ROOT
ATOM      1  C7  UNL     1      -7.268  43.112 -33.557  0.00  0.00    +0.000 C 
ATOM      2  C8  UNL     1      -7.514  43.043 -32.027  0.00  0.00    +0.000 C 
ATOM      3  C9  UNL     1      -6.173  42.988 -31.244  0.00  0.00    +0.000 C 
ATOM      4  C10 UNL     1      -5.088  42.293 -32.084  0.00  0.00    +0.000 C 
ATOM      5  C11 UNL     1      -4.926  43.014 -33.468  0.00  0.00    +0.000 C 
ATOM      6  O1  UNL     1      -6.060  43.802 -33.819  0.00  0.00    +0.000 OA
ENDROOT
BRANCH   1  12
ATOM      7  C1  UNL     1      -9.533  43.096 -34.699  0.00  0.00    +0.000 A 
ATOM      8  C2  UNL     1     -10.575  43.749 -35.364  0.00  0.00    +0.000 A 
ATOM      9  C3  UNL     1     -10.509  45.129 -35.596  0.00  0.00    +0.000 A 
ATOM     10  C4  UNL     1      -9.391  45.855 -35.164  0.00  0.00    +0.000 A 
ATOM     11  C5  UNL     1      -8.347  45.199 -34.496  0.00  0.00    +0.000 A 
ATOM     12  C6  UNL     1      -8.416  43.818 -34.245  0.00  0.00    +0.000 A 
BRANCH  10  13
ATOM     13  O6  UNL     1      -9.325  47.226 -35.404  0.00  0.00    +0.000 OA
ATOM     14  H15 UNL     1      -8.835  47.601 -36.208  0.00  0.00    +0.000 HD
ENDBRANCH  10  13
BRANCH   9  15
ATOM     15  O7  UNL     1     -11.545  45.783 -36.258  0.00  0.00    +0.000 OA
ATOM     16  H16 UNL     1     -11.682  45.685 -37.257  0.00  0.00    +0.000 HD
ENDBRANCH   9  15
ENDBRANCH   1  12
BRANCH   4  17
ATOM     17  O3  UNL     1      -3.873  42.256 -31.375  0.00  0.00    +0.000 OA
ATOM     18  H12 UNL     1      -3.247  42.875 -31.835  0.00  0.00    +0.000 HD
ENDBRANCH   4  17
BRANCH   3  19
ATOM     19  O4  UNL     1      -6.336  42.320 -30.019  0.00  0.00    +0.000 OA
ATOM     20  H13 UNL     1      -6.170  42.990 -29.307  0.00  0.00    +0.000 HD
ENDBRANCH   3  19
BRANCH   2  21
ATOM     21  O5  UNL     1      -8.347  41.952 -31.713  0.00  0.00    +0.000 OA
ATOM     22  H14 UNL     1      -7.772  41.228 -31.354  0.00  0.00    +0.000 HD
ENDBRANCH   2  21
BRANCH   5  23
ATOM     23  C12 UNL     1      -3.690  43.925 -33.518  0.00  0.00    +0.000 C 
BRANCH  23  24
ATOM     24  O2  UNL     1      -3.718  44.699 -34.685  0.00  0.00    +0.000 OA
ATOM     25  H11 UNL     1      -4.428  44.308 -35.259  0.00  0.00    +0.000 HD
ENDBRANCH  23  24
ENDBRANCH   5  23
TORSDOF 8
ENDMDL
MODEL 4
REMARK VINA RESULT:      -3.7      2.177      2.878
REMARK  Name = .\Catechins.pdb
REMARK  8 active torsions:
REMARK  status: ('A' for Active; 'I' for Inactive)
REMARK    1  A    between atoms: C3_3  and  O7_19
REMARK    2  A    between atoms: C4_4  and  O6_18
REMARK    3  A    between atoms: C6_6  and  C7_7
REMARK    4  A    between atoms: C8_8  and  O5_17
REMARK    5  A    between atoms: C9_9  and  O4_16
REMARK    6  A    between atoms: C10_10  and  O3_15
REMARK    7  A    between atoms: C11_11  and  C12_13
REMARK    8  A    between atoms: C12_13  and  O2_14
REMARK                            x       y       z     vdW  Elec       q    Type
REMARK                         _______ _______ _______ _____ _____    ______ ____
ROOT
ATOM      1  C7  UNL     1      -7.944  43.432 -33.213  0.00  0.00    +0.000 C 
ATOM      2  C8  UNL     1      -8.537  42.334 -34.136  0.00  0.00    +0.000 C 
ATOM      3  C9  UNL     1      -9.357  42.959 -35.298  0.00  0.00    +0.000 C 
ATOM      4  C10 UNL     1      -9.977  44.297 -34.860  0.00  0.00    +0.000 C 
ATOM      5  C11 UNL     1      -8.861  45.271 -34.343  0.00  0.00    +0.000 C 
ATOM      6  O1  UNL     1      -7.664  44.595 -33.970  0.00  0.00    +0.000 OA
ENDROOT
BRANCH   1  12
ATOM      7  C1  UNL     1      -6.672  42.562 -31.198  0.00  0.00    +0.000 A 
ATOM      8  C2  UNL     1      -5.490  42.140 -30.584  0.00  0.00    +0.000 A 
ATOM      9  C3  UNL     1      -4.293  42.098 -31.312  0.00  0.00    +0.000 A 
ATOM     10  C4  UNL     1      -4.282  42.488 -32.657  0.00  0.00    +0.000 A 
ATOM     11  C5  UNL     1      -5.469  42.911 -33.273  0.00  0.00    +0.000 A 
ATOM     12  C6  UNL     1      -6.675  42.938 -32.553  0.00  0.00    +0.000 A 
BRANCH  10  13
ATOM     13  O6  UNL     1      -3.088  42.453 -33.375  0.00  0.00    +0.000 OA
ATOM     14  H15 UNL     1      -2.782  41.614 -33.854  0.00  0.00    +0.000 HD
ENDBRANCH  10  13
BRANCH   9  15
ATOM     15  O7  UNL     1      -3.113  41.677 -30.704  0.00  0.00    +0.000 OA
ATOM     16  H16 UNL     1      -3.121  41.120 -29.857  0.00  0.00    +0.000 HD
ENDBRANCH   9  15
ENDBRANCH   1  12
BRANCH   4  17
ATOM     17  O3  UNL     1     -10.708  44.864 -35.920  0.00  0.00    +0.000 OA
ATOM     18  H12 UNL     1     -11.662  44.875 -35.644  0.00  0.00    +0.000 HD
ENDBRANCH   4  17
BRANCH   3  19
ATOM     19  O4  UNL     1     -10.363  42.079 -35.730  0.00  0.00    +0.000 OA
ATOM     20  H13 UNL     1     -10.786  41.709 -34.912  0.00  0.00    +0.000 HD
ENDBRANCH   3  19
BRANCH   2  21
ATOM     21  O5  UNL     1      -9.306  41.425 -33.384  0.00  0.00    +0.000 OA
ATOM     22  H14 UNL     1      -8.679  40.812 -32.920  0.00  0.00    +0.000 HD
ENDBRANCH   2  21
BRANCH   5  23
ATOM     23  C12 UNL     1      -8.489  46.343 -35.379  0.00  0.00    +0.000 C 
BRANCH  23  24
ATOM     24  O2  UNL     1      -9.452  47.361 -35.375  0.00  0.00    +0.000 OA
ATOM     25  H11 UNL     1     -10.330  46.910 -35.275  0.00  0.00    +0.000 HD
ENDBRANCH  23  24
ENDBRANCH   5  23
TORSDOF 8
ENDMDL
MODEL 5
REMARK VINA RESULT:      -3.7      1.497      6.199
REMARK  Name = .\Catechins.pdb
REMARK  8 active torsions:
REMARK  status: ('A' for Active; 'I' for Inactive)
REMARK    1  A    between atoms: C3_3  and  O7_19
REMARK    2  A    between atoms: C4_4  and  O6_18
REMARK    3  A    between atoms: C6_6  and  C7_7
REMARK    4  A    between atoms: C8_8  and  O5_17
REMARK    5  A    between atoms: C9_9  and  O4_16
REMARK    6  A    between atoms: C10_10  and  O3_15
REMARK    7  A    between atoms: C11_11  and  C12_13
REMARK    8  A    between atoms: C12_13  and  O2_14
REMARK                            x       y       z     vdW  Elec       q    Type
REMARK                         _______ _______ _______ _____ _____    ______ ____
ROOT
ATOM      1  C7  UNL     1      -7.078  44.807 -32.706  0.00  0.00    +0.000 C 
ATOM      2  C8  UNL     1      -6.178  45.400 -33.822  0.00  0.00    +0.000 C 
ATOM      3  C9  UNL     1      -4.930  44.509 -34.071  0.00  0.00    +0.000 C 
ATOM      4  C10 UNL     1      -4.520  43.784 -32.778  0.00  0.00    +0.000 C 
ATOM      5  C11 UNL     1      -5.726  42.955 -32.212  0.00  0.00    +0.000 C 
ATOM      6  O1  UNL     1      -6.985  43.394 -32.714  0.00  0.00    +0.000 OA
ENDROOT
BRANCH   1  12
ATOM      7  C1  UNL     1      -9.472  45.029 -31.897  0.00  0.00    +0.000 A 
ATOM      8  C2  UNL     1     -10.808  45.383 -32.105  0.00  0.00    +0.000 A 
ATOM      9  C3  UNL     1     -11.211  45.924 -33.334  0.00  0.00    +0.000 A 
ATOM     10  C4  UNL     1     -10.272  46.105 -34.356  0.00  0.00    +0.000 A 
ATOM     11  C5  UNL     1      -8.931  45.750 -34.147  0.00  0.00    +0.000 A 
ATOM     12  C6  UNL     1      -8.518  45.223 -32.912  0.00  0.00    +0.000 A 
BRANCH  10  13
ATOM     13  O6  UNL     1     -10.678  46.637 -35.579  0.00  0.00    +0.000 OA
ATOM     14  H15 UNL     1     -10.960  47.606 -35.669  0.00  0.00    +0.000 HD
ENDBRANCH  10  13
BRANCH   9  15
ATOM     15  O7  UNL     1     -12.541  46.279 -33.545  0.00  0.00    +0.000 OA
ATOM     16  H16 UNL     1     -12.838  46.748 -34.393  0.00  0.00    +0.000 HD
ENDBRANCH   9  15
ENDBRANCH   1  12
BRANCH   4  17
ATOM     17  O3  UNL     1      -3.397  42.970 -33.012  0.00  0.00    +0.000 OA
ATOM     18  H12 UNL     1      -3.532  42.532 -33.893  0.00  0.00    +0.000 HD
ENDBRANCH   4  17
BRANCH   3  19
ATOM     19  O4  UNL     1      -3.858  45.274 -34.556  0.00  0.00    +0.000 OA
ATOM     20  H13 UNL     1      -3.645  44.924 -35.460  0.00  0.00    +0.000 HD
ENDBRANCH   3  19
BRANCH   2  21
ATOM     21  O5  UNL     1      -5.819  46.725 -33.510  0.00  0.00    +0.000 OA
ATOM     22  H14 UNL     1      -6.353  47.005 -32.722  0.00  0.00    +0.000 HD
ENDBRANCH   2  21
BRANCH   5  23
ATOM     23  C12 UNL     1      -5.602  41.454 -32.513  0.00  0.00    +0.000 C 
BRANCH  23  24
ATOM     24  O2  UNL     1      -5.481  41.255 -33.895  0.00  0.00    +0.000 OA
ATOM     25  H11 UNL     1      -5.474  42.160 -34.304  0.00  0.00    +0.000 HD
ENDBRANCH  23  24
ENDBRANCH   5  23
TORSDOF 8
ENDMDL
MODEL 6
REMARK VINA RESULT:      -3.6      1.618      6.209
REMARK  Name = .\Catechins.pdb
REMARK  8 active torsions:
REMARK  status: ('A' for Active; 'I' for Inactive)
REMARK    1  A    between atoms: C3_3  and  O7_19
REMARK    2  A    between atoms: C4_4  and  O6_18
REMARK    3  A    between atoms: C6_6  and  C7_7
REMARK    4  A    between atoms: C8_8  and  O5_17
REMARK    5  A    between atoms: C9_9  and  O4_16
REMARK    6  A    between atoms: C10_10  and  O3_15
REMARK    7  A    between atoms: C11_11  and  C12_13
REMARK    8  A    between atoms: C12_13  and  O2_14
REMARK                            x       y       z     vdW  Elec       q    Type
REMARK                         _______ _______ _______ _____ _____    ______ ____
ROOT
ATOM      1  C7  UNL     1      -7.455  43.351 -32.949  0.00  0.00    +0.000 C 
ATOM      2  C8  UNL     1      -7.273  42.771 -31.521  0.00  0.00    +0.000 C 
ATOM      3  C9  UNL     1      -5.772  42.532 -31.199  0.00  0.00    +0.000 C 
ATOM      4  C10 UNL     1      -4.991  42.209 -32.483  0.00  0.00    +0.000 C 
ATOM      5  C11 UNL     1      -5.185  43.351 -33.541  0.00  0.00    +0.000 C 
ATOM      6  O1  UNL     1      -6.337  44.150 -33.289  0.00  0.00    +0.000 OA
ENDROOT
BRANCH   1  12
ATOM      7  C1  UNL     1      -9.023  44.916 -34.184  0.00  0.00    +0.000 A 
ATOM      8  C2  UNL     1     -10.172  45.710 -34.235  0.00  0.00    +0.000 A 
ATOM      9  C3  UNL     1     -11.024  45.791 -33.125  0.00  0.00    +0.000 A 
ATOM     10  C4  UNL     1     -10.718  45.078 -31.959  0.00  0.00    +0.000 A 
ATOM     11  C5  UNL     1      -9.565  44.281 -31.908  0.00  0.00    +0.000 A 
ATOM     12  C6  UNL     1      -8.716  44.182 -33.024  0.00  0.00    +0.000 A 
BRANCH  10  13
ATOM     13  O6  UNL     1     -11.563  45.168 -30.854  0.00  0.00    +0.000 OA
ATOM     14  H15 UNL     1     -12.402  45.736 -30.874  0.00  0.00    +0.000 HD
ENDBRANCH  10  13
BRANCH   9  15
ATOM     15  O7  UNL     1     -12.171  46.581 -33.173  0.00  0.00    +0.000 OA
ATOM     16  H16 UNL     1     -12.903  46.412 -33.853  0.00  0.00    +0.000 HD
ENDBRANCH   9  15
ENDBRANCH   1  12
BRANCH   4  17
ATOM     17  O3  UNL     1      -3.630  42.005 -32.187  0.00  0.00    +0.000 OA
ATOM     18  H12 UNL     1      -3.387  42.650 -31.473  0.00  0.00    +0.000 HD
ENDBRANCH   4  17
BRANCH   3  19
ATOM     19  O4  UNL     1      -5.620  41.492 -30.267  0.00  0.00    +0.000 OA
ATOM     20  H13 UNL     1      -6.064  41.793 -29.432  0.00  0.00    +0.000 HD
ENDBRANCH   3  19
BRANCH   2  21
ATOM     21  O5  UNL     1      -8.033  41.595 -31.369  0.00  0.00    +0.000 OA
ATOM     22  H14 UNL     1      -8.763  41.619 -32.041  0.00  0.00    +0.000 HD
ENDBRANCH   2  21
BRANCH   5  23
ATOM     23  C12 UNL     1      -3.973  44.291 -33.624  0.00  0.00    +0.000 C 
BRANCH  23  24
ATOM     24  O2  UNL     1      -3.635  44.512 -34.966  0.00  0.00    +0.000 OA
ATOM     25  H11 UNL     1      -3.775  43.646 -35.432  0.00  0.00    +0.000 HD
ENDBRANCH  23  24
ENDBRANCH   5  23
TORSDOF 8
ENDMDL
MODEL 7
REMARK VINA RESULT:      -3.5      1.934      2.856
REMARK  Name = .\Catechins.pdb
REMARK  8 active torsions:
REMARK  status: ('A' for Active; 'I' for Inactive)
REMARK    1  A    between atoms: C3_3  and  O7_19
REMARK    2  A    between atoms: C4_4  and  O6_18
REMARK    3  A    between atoms: C6_6  and  C7_7
REMARK    4  A    between atoms: C8_8  and  O5_17
REMARK    5  A    between atoms: C9_9  and  O4_16
REMARK    6  A    between atoms: C10_10  and  O3_15
REMARK    7  A    between atoms: C11_11  and  C12_13
REMARK    8  A    between atoms: C12_13  and  O2_14
REMARK                            x       y       z     vdW  Elec       q    Type
REMARK                         _______ _______ _______ _____ _____    ______ ____
ROOT
ATOM      1  C7  UNL     1      -7.670  43.657 -33.784  0.00  0.00    +0.000 C 
ATOM      2  C8  UNL     1      -7.617  45.208 -33.793  0.00  0.00    +0.000 C 
ATOM      3  C9  UNL     1      -8.943  45.812 -34.332  0.00  0.00    +0.000 C 
ATOM      4  C10 UNL     1      -9.596  44.858 -35.347  0.00  0.00    +0.000 C 
ATOM      5  C11 UNL     1      -9.819  43.446 -34.700  0.00  0.00    +0.000 C 
ATOM      6  O1  UNL     1      -8.999  43.224 -33.557  0.00  0.00    +0.000 OA
ENDROOT
BRANCH   1  12
ATOM      7  C1  UNL     1      -7.197  43.040 -31.369  0.00  0.00    +0.000 A 
ATOM      8  C2  UNL     1      -6.343  42.561 -30.372  0.00  0.00    +0.000 A 
ATOM      9  C3  UNL     1      -5.042  42.152 -30.693  0.00  0.00    +0.000 A 
ATOM     10  C4  UNL     1      -4.595  42.230 -32.018  0.00  0.00    +0.000 A 
ATOM     11  C5  UNL     1      -5.452  42.711 -33.019  0.00  0.00    +0.000 A 
ATOM     12  C6  UNL     1      -6.764  43.105 -32.705  0.00  0.00    +0.000 A 
BRANCH  10  13
ATOM     13  O6  UNL     1      -3.297  41.830 -32.333  0.00  0.00    +0.000 OA
ATOM     14  H15 UNL     1      -2.689  42.406 -32.904  0.00  0.00    +0.000 HD
ENDBRANCH  10  13
BRANCH   9  15
ATOM     15  O7  UNL     1      -4.189  41.673 -29.702  0.00  0.00    +0.000 OA
ATOM     16  H16 UNL     1      -3.277  42.087 -29.540  0.00  0.00    +0.000 HD
ENDBRANCH   9  15
ENDBRANCH   1  12
BRANCH   4  17
ATOM     17  O3  UNL     1     -10.802  45.405 -35.822  0.00  0.00    +0.000 OA
ATOM     18  H12 UNL     1     -10.626  46.356 -36.042  0.00  0.00    +0.000 HD
ENDBRANCH   4  17
BRANCH   3  19
ATOM     19  O4  UNL     1      -8.718  47.065 -34.925  0.00  0.00    +0.000 OA
ATOM     20  H13 UNL     1      -9.035  47.747 -34.278  0.00  0.00    +0.000 HD
ENDBRANCH   3  19
BRANCH   2  21
ATOM     21  O5  UNL     1      -6.503  45.656 -34.529  0.00  0.00    +0.000 OA
ATOM     22  H14 UNL     1      -6.789  45.767 -35.472  0.00  0.00    +0.000 HD
ENDBRANCH   2  21
BRANCH   5  23
ATOM     23  C12 UNL     1     -11.278  43.212 -34.281  0.00  0.00    +0.000 C 
BRANCH  23  24
ATOM     24  O2  UNL     1     -11.602  44.050 -33.205  0.00  0.00    +0.000 OA
ATOM     25  H11 UNL     1     -11.398  43.533 -32.382  0.00  0.00    +0.000 HD
ENDBRANCH  23  24
ENDBRANCH   5  23
TORSDOF 8
ENDMDL
MODEL 8
REMARK VINA RESULT:      -3.4      1.722      2.350
REMARK  Name = .\Catechins.pdb
REMARK  8 active torsions:
REMARK  status: ('A' for Active; 'I' for Inactive)
REMARK    1  A    between atoms: C3_3  and  O7_19
REMARK    2  A    between atoms: C4_4  and  O6_18
REMARK    3  A    between atoms: C6_6  and  C7_7
REMARK    4  A    between atoms: C8_8  and  O5_17
REMARK    5  A    between atoms: C9_9  and  O4_16
REMARK    6  A    between atoms: C10_10  and  O3_15
REMARK    7  A    between atoms: C11_11  and  C12_13
REMARK    8  A    between atoms: C12_13  and  O2_14
REMARK                            x       y       z     vdW  Elec       q    Type
REMARK                         _______ _______ _______ _____ _____    ______ ____
ROOT
ATOM      1  C7  UNL     1      -8.056  44.492 -32.718  0.00  0.00    +0.000 C 
ATOM      2  C8  UNL     1      -9.247  43.499 -32.660  0.00  0.00    +0.000 C 
ATOM      3  C9  UNL     1     -10.447  44.011 -33.503  0.00  0.00    +0.000 C 
ATOM      4  C10 UNL     1     -10.467  45.549 -33.532  0.00  0.00    +0.000 C 
ATOM      5  C11 UNL     1      -9.099  46.101 -34.068  0.00  0.00    +0.000 C 
ATOM      6  O1  UNL     1      -8.042  45.152 -33.970  0.00  0.00    +0.000 OA
ENDROOT
BRANCH   1  12
ATOM      7  C1  UNL     1      -5.686  43.924 -33.421  0.00  0.00    +0.000 A 
ATOM      8  C2  UNL     1      -4.492  43.218 -33.248  0.00  0.00    +0.000 A 
ATOM      9  C3  UNL     1      -4.347  42.330 -32.173  0.00  0.00    +0.000 A 
ATOM     10  C4  UNL     1      -5.406  42.146 -31.275  0.00  0.00    +0.000 A 
ATOM     11  C5  UNL     1      -6.603  42.854 -31.449  0.00  0.00    +0.000 A 
ATOM     12  C6  UNL     1      -6.748  43.759 -32.515  0.00  0.00    +0.000 A 
BRANCH  10  13
ATOM     13  O6  UNL     1      -5.261  41.255 -30.213  0.00  0.00    +0.000 OA
ATOM     14  H15 UNL     1      -5.684  40.334 -30.231  0.00  0.00    +0.000 HD
ENDBRANCH  10  13
BRANCH   9  15
ATOM     15  O7  UNL     1      -3.158  41.626 -31.997  0.00  0.00    +0.000 OA
ATOM     16  H16 UNL     1      -2.981  41.086 -31.157  0.00  0.00    +0.000 HD
ENDBRANCH   9  15
ENDBRANCH   1  12
BRANCH   4  17
ATOM     17  O3  UNL     1     -11.548  46.007 -34.307  0.00  0.00    +0.000 OA
ATOM     18  H12 UNL     1     -11.240  46.818 -34.789  0.00  0.00    +0.000 HD
ENDBRANCH   4  17
BRANCH   3  19
ATOM     19  O4  UNL     1     -11.661  43.523 -32.993  0.00  0.00    +0.000 OA
ATOM     20  H13 UNL     1     -11.514  43.350 -32.027  0.00  0.00    +0.000 HD
ENDBRANCH   3  19
BRANCH   2  21
ATOM     21  O5  UNL     1      -9.615  43.254 -31.323  0.00  0.00    +0.000 OA
ATOM     22  H14 UNL     1     -10.583  43.451 -31.236  0.00  0.00    +0.000 HD
ENDBRANCH   2  21
BRANCH   5  23
ATOM     23  C12 UNL     1      -9.182  46.560 -35.531  0.00  0.00    +0.000 C 
BRANCH  23  24
ATOM     24  O2  UNL     1      -9.645  47.881 -35.589  0.00  0.00    +0.000 OA
ATOM     25  H11 UNL     1      -8.959  48.435 -35.134  0.00  0.00    +0.000 HD
ENDBRANCH  23  24
ENDBRANCH   5  23
TORSDOF 8
ENDMDL
MODEL 9
REMARK VINA RESULT:      -2.9      2.244      6.236
REMARK  Name = .\Catechins.pdb
REMARK  8 active torsions:
REMARK  status: ('A' for Active; 'I' for Inactive)
REMARK    1  A    between atoms: C3_3  and  O7_19
REMARK    2  A    between atoms: C4_4  and  O6_18
REMARK    3  A    between atoms: C6_6  and  C7_7
REMARK    4  A    between atoms: C8_8  and  O5_17
REMARK    5  A    between atoms: C9_9  and  O4_16
REMARK    6  A    between atoms: C10_10  and  O3_15
REMARK    7  A    between atoms: C11_11  and  C12_13
REMARK    8  A    between atoms: C12_13  and  O2_14
REMARK                            x       y       z     vdW  Elec       q    Type
REMARK                         _______ _______ _______ _____ _____    ______ ____
ROOT
ATOM      1  C7  UNL     1      -7.164  43.507 -33.149  0.00  0.00    +0.000 C 
ATOM      2  C8  UNL     1      -6.788  44.863 -33.801  0.00  0.00    +0.000 C 
ATOM      3  C9  UNL     1      -5.260  44.955 -34.067  0.00  0.00    +0.000 C 
ATOM      4  C10 UNL     1      -4.483  44.130 -33.027  0.00  0.00    +0.000 C 
ATOM      5  C11 UNL     1      -4.986  42.644 -33.023  0.00  0.00    +0.000 C 
ATOM      6  O1  UNL     1      -6.280  42.496 -33.599  0.00  0.00    +0.000 OA
ENDROOT
BRANCH   1  12
ATOM      7  C1  UNL     1      -9.367  42.371 -32.607  0.00  0.00    +0.000 A 
ATOM      8  C2  UNL     1     -10.669  41.997 -32.949  0.00  0.00    +0.000 A 
ATOM      9  C3  UNL     1     -11.206  42.366 -34.190  0.00  0.00    +0.000 A 
ATOM     10  C4  UNL     1     -10.431  43.106 -35.091  0.00  0.00    +0.000 A 
ATOM     11  C5  UNL     1      -9.125  43.482 -34.748  0.00  0.00    +0.000 A 
ATOM     12  C6  UNL     1      -8.587  43.130 -33.498  0.00  0.00    +0.000 A 
BRANCH  10  13
ATOM     13  O6  UNL     1     -10.966  43.464 -36.328  0.00  0.00    +0.000 OA
ATOM     14  H15 UNL     1     -11.664  44.194 -36.413  0.00  0.00    +0.000 HD
ENDBRANCH  10  13
BRANCH   9  15
ATOM     15  O7  UNL     1     -12.504  41.995 -34.534  0.00  0.00    +0.000 OA
ATOM     16  H16 UNL     1     -13.257  42.673 -34.572  0.00  0.00    +0.000 HD
ENDBRANCH   9  15
ENDBRANCH   1  12
BRANCH   4  17
ATOM     17  O3  UNL     1      -3.100  44.206 -33.279  0.00  0.00    +0.000 OA
ATOM     18  H12 UNL     1      -2.690  43.379 -32.916  0.00  0.00    +0.000 HD
ENDBRANCH   4  17
BRANCH   3  19
ATOM     19  O4  UNL     1      -4.827  46.290 -34.044  0.00  0.00    +0.000 OA
ATOM     20  H13 UNL     1      -3.848  46.274 -34.204  0.00  0.00    +0.000 HD
ENDBRANCH   3  19
BRANCH   2  21
ATOM     21  O5  UNL     1      -7.244  45.932 -33.006  0.00  0.00    +0.000 OA
ATOM     22  H14 UNL     1      -7.335  46.727 -33.593  0.00  0.00    +0.000 HD
ENDBRANCH   2  21
BRANCH   5  23
ATOM     23  C12 UNL     1      -4.033  41.696 -33.766  0.00  0.00    +0.000 C 
BRANCH  23  24
ATOM     24  O2  UNL     1      -3.002  41.291 -32.908  0.00  0.00    +0.000 OA
ATOM     25  H11 UNL     1      -2.477  42.108 -32.702  0.00  0.00    +0.000 HD
ENDBRANCH  23  24
ENDBRANCH   5  23
TORSDOF 8
ENDMDL
