MODEL 1
REMARK VINA RESULT:      -1.7      0.000      0.000
REMARK  Name = .\Catechins.pdb
REMARK  8 active torsions:
REMARK  status: ('A' for Active; 'I' for Inactive)
REMARK    1  A    between atoms: C3_3  and  O7_19
REMARK    2  A    between atoms: C4_4  and  O6_18
REMARK    3  A    between atoms: C6_6  and  C7_7
REMARK    4  A    between atoms: C8_8  and  O5_17
REMARK    5  A    between atoms: C9_9  and  O4_16
REMARK    6  A    between atoms: C10_10  and  O3_15
REMARK    7  A    between atoms: C11_11  and  C12_13
REMARK    8  A    between atoms: C12_13  and  O2_14
REMARK                            x       y       z     vdW  Elec       q    Type
REMARK                         _______ _______ _______ _____ _____    ______ ____
ROOT
ATOM      1  C7  UNL     1       7.334  59.620  31.350  0.00  0.00    +0.000 C 
ATOM      2  C8  UNL     1       6.873  60.781  32.269  0.00  0.00    +0.000 C 
ATOM      3  C9  UNL     1       7.717  62.062  32.023  0.00  0.00    +0.000 C 
ATOM      4  C10 UNL     1       9.139  61.691  31.570  0.00  0.00    +0.000 C 
ATOM      5  C11 UNL     1       9.083  60.775  30.297  0.00  0.00    +0.000 C 
ATOM      6  O1  UNL     1       7.819  60.140  30.126  0.00  0.00    +0.000 OA
ENDROOT
BRANCH   1  12
ATOM      7  C1  UNL     1       5.152  59.032  30.197  0.00  0.00    +0.000 A 
ATOM      8  C2  UNL     1       4.076  58.167  29.978  0.00  0.00    +0.000 A 
ATOM      9  C3  UNL     1       4.012  56.937  30.646  0.00  0.00    +0.000 A 
ATOM     10  C4  UNL     1       5.028  56.578  31.542  0.00  0.00    +0.000 A 
ATOM     11  C5  UNL     1       6.107  57.446  31.761  0.00  0.00    +0.000 A 
ATOM     12  C6  UNL     1       6.186  58.673  31.080  0.00  0.00    +0.000 A 
BRANCH  10  13
ATOM     13  O6  UNL     1       4.956  55.357  32.211  0.00  0.00    +0.000 OA
ATOM     14  H15 UNL     1       4.395  54.591  31.858  0.00  0.00    +0.000 HD
ENDBRANCH  10  13
BRANCH   9  15
ATOM     15  O7  UNL     1       2.942  56.072  30.430  0.00  0.00    +0.000 OA
ATOM     16  H16 UNL     1       3.086  55.085  30.248  0.00  0.00    +0.000 HD
ENDBRANCH   9  15
ENDBRANCH   1  12
BRANCH   4  17
ATOM     17  O3  UNL     1       9.895  62.854  31.337  0.00  0.00    +0.000 OA
ATOM     18  H12 UNL     1       9.797  63.432  32.138  0.00  0.00    +0.000 HD
ENDBRANCH   4  17
BRANCH   3  19
ATOM     19  O4  UNL     1       7.771  62.855  33.181  0.00  0.00    +0.000 OA
ATOM     20  H13 UNL     1       7.817  62.231  33.951  0.00  0.00    +0.000 HD
ENDBRANCH   3  19
BRANCH   2  21
ATOM     21  O5  UNL     1       6.911  60.383  33.619  0.00  0.00    +0.000 OA
ATOM     22  H14 UNL     1       6.630  59.433  33.661  0.00  0.00    +0.000 HD
ENDBRANCH   2  21
BRANCH   5  23
ATOM     23  C12 UNL     1       9.399  61.543  29.005  0.00  0.00    +0.000 C 
BRANCH  23  24
ATOM     24  O2  UNL     1       8.364  62.445  28.724  0.00  0.00    +0.000 OA
ATOM     25  H11 UNL     1       8.799  63.325  28.574  0.00  0.00    +0.000 HD
ENDBRANCH  23  24
ENDBRANCH   5  23
TORSDOF 8
ENDMDL
