MODEL 1
REMARK VINA RESULT:      -2.0      0.000      0.000
REMARK  Name = .\Catechins.pdb
REMARK  8 active torsions:
REMARK  status: ('A' for Active; 'I' for Inactive)
REMARK    1  A    between atoms: C3_3  and  O7_19
REMARK    2  A    between atoms: C4_4  and  O6_18
REMARK    3  A    between atoms: C6_6  and  C7_7
REMARK    4  A    between atoms: C8_8  and  O5_17
REMARK    5  A    between atoms: C9_9  and  O4_16
REMARK    6  A    between atoms: C10_10  and  O3_15
REMARK    7  A    between atoms: C11_11  and  C12_13
REMARK    8  A    between atoms: C12_13  and  O2_14
REMARK                            x       y       z     vdW  Elec       q    Type
REMARK                         _______ _______ _______ _____ _____    ______ ____
ROOT
ATOM      1  C7  UNL     1     -30.151  50.806   9.483  0.00  0.00    +0.000 C 
ATOM      2  C8  UNL     1     -30.408  49.495   8.694  0.00  0.00    +0.000 C 
ATOM      3  C9  UNL     1     -31.855  48.977   8.921  0.00  0.00    +0.000 C 
ATOM      4  C10 UNL     1     -32.360  49.384  10.315  0.00  0.00    +0.000 C 
ATOM      5  C11 UNL     1     -32.262  50.939  10.497  0.00  0.00    +0.000 C 
ATOM      6  O1  UNL     1     -31.353  51.548   9.586  0.00  0.00    +0.000 OA
ENDROOT
BRANCH   1  12
ATOM      7  C1  UNL     1     -27.867  51.907   9.421  0.00  0.00    +0.000 A 
ATOM      8  C2  UNL     1     -26.910  52.708   8.792  0.00  0.00    +0.000 A 
ATOM      9  C3  UNL     1     -27.171  53.262   7.531  0.00  0.00    +0.000 A 
ATOM     10  C4  UNL     1     -28.400  53.017   6.905  0.00  0.00    +0.000 A 
ATOM     11  C5  UNL     1     -29.360  52.214   7.536  0.00  0.00    +0.000 A 
ATOM     12  C6  UNL     1     -29.096  51.641   8.792  0.00  0.00    +0.000 A 
BRANCH  10  13
ATOM     13  O6  UNL     1     -28.659  53.578   5.655  0.00  0.00    +0.000 OA
ATOM     14  H15 UNL     1     -29.471  54.162   5.494  0.00  0.00    +0.000 HD
ENDBRANCH  10  13
BRANCH   9  15
ATOM     15  O7  UNL     1     -26.219  54.060   6.901  0.00  0.00    +0.000 OA
ATOM     16  H16 UNL     1     -25.650  54.718   7.420  0.00  0.00    +0.000 HD
ENDBRANCH   9  15
ENDBRANCH   1  12
BRANCH   4  17
ATOM     17  O3  UNL     1     -33.675  48.922  10.510  0.00  0.00    +0.000 OA
ATOM     18  H12 UNL     1     -33.887  49.040  11.472  0.00  0.00    +0.000 HD
ENDBRANCH   4  17
BRANCH   3  19
ATOM     19  O4  UNL     1     -31.915  47.581   8.774  0.00  0.00    +0.000 OA
ATOM     20  H13 UNL     1     -32.860  47.320   8.928  0.00  0.00    +0.000 HD
ENDBRANCH   3  19
BRANCH   2  21
ATOM     21  O5  UNL     1     -29.447  48.523   9.033  0.00  0.00    +0.000 OA
ATOM     22  H14 UNL     1     -28.798  48.467   8.284  0.00  0.00    +0.000 HD
ENDBRANCH   2  21
BRANCH   5  23
ATOM     23  C12 UNL     1     -33.621  51.637  10.339  0.00  0.00    +0.000 C 
BRANCH  23  24
ATOM     24  O2  UNL     1     -33.560  52.559   9.285  0.00  0.00    +0.000 OA
ATOM     25  H11 UNL     1     -33.967  52.109   8.500  0.00  0.00    +0.000 HD
ENDBRANCH  23  24
ENDBRANCH   5  23
TORSDOF 8
ENDMDL
MODEL 2
REMARK VINA RESULT:      -1.5      2.612      4.009
REMARK  Name = .\Catechins.pdb
REMARK  8 active torsions:
REMARK  status: ('A' for Active; 'I' for Inactive)
REMARK    1  A    between atoms: C3_3  and  O7_19
REMARK    2  A    between atoms: C4_4  and  O6_18
REMARK    3  A    between atoms: C6_6  and  C7_7
REMARK    4  A    between atoms: C8_8  and  O5_17
REMARK    5  A    between atoms: C9_9  and  O4_16
REMARK    6  A    between atoms: C10_10  and  O3_15
REMARK    7  A    between atoms: C11_11  and  C12_13
REMARK    8  A    between atoms: C12_13  and  O2_14
REMARK                            x       y       z     vdW  Elec       q    Type
REMARK                         _______ _______ _______ _____ _____    ______ ____
ROOT
ATOM      1  C7  UNL     1     -30.873  49.283   6.794  0.00  0.00    +0.000 C 
ATOM      2  C8  UNL     1     -32.294  49.517   7.371  0.00  0.00    +0.000 C 
ATOM      3  C9  UNL     1     -32.370  49.097   8.865  0.00  0.00    +0.000 C 
ATOM      4  C10 UNL     1     -31.382  47.953   9.153  0.00  0.00    +0.000 C 
ATOM      5  C11 UNL     1     -29.928  48.372   8.739  0.00  0.00    +0.000 C 
ATOM      6  O1  UNL     1     -29.906  49.455   7.814  0.00  0.00    +0.000 OA
ENDROOT
BRANCH   1  12
ATOM      7  C1  UNL     1     -31.035  49.969   4.357  0.00  0.00    +0.000 A 
ATOM      8  C2  UNL     1     -30.748  50.848   3.310  0.00  0.00    +0.000 A 
ATOM      9  C3  UNL     1     -30.007  52.013   3.551  0.00  0.00    +0.000 A 
ATOM     10  C4  UNL     1     -29.550  52.293   4.845  0.00  0.00    +0.000 A 
ATOM     11  C5  UNL     1     -29.839  51.410   5.895  0.00  0.00    +0.000 A 
ATOM     12  C6  UNL     1     -30.596  50.249   5.663  0.00  0.00    +0.000 A 
BRANCH  10  13
ATOM     13  O6  UNL     1     -28.806  53.448   5.078  0.00  0.00    +0.000 OA
ATOM     14  H15 UNL     1     -27.979  53.437   5.663  0.00  0.00    +0.000 HD
ENDBRANCH  10  13
BRANCH   9  15
ATOM     15  O7  UNL     1     -29.719  52.893   2.510  0.00  0.00    +0.000 OA
ATOM     16  H16 UNL     1     -29.852  53.893   2.607  0.00  0.00    +0.000 HD
ENDBRANCH   9  15
ENDBRANCH   1  12
BRANCH   4  17
ATOM     17  O3  UNL     1     -31.447  47.585  10.510  0.00  0.00    +0.000 OA
ATOM     18  H12 UNL     1     -31.753  48.383  11.015  0.00  0.00    +0.000 HD
ENDBRANCH   4  17
BRANCH   3  19
ATOM     19  O4  UNL     1     -33.674  48.706   9.209  0.00  0.00    +0.000 OA
ATOM     20  H13 UNL     1     -33.697  48.632  10.198  0.00  0.00    +0.000 HD
ENDBRANCH   3  19
BRANCH   2  21
ATOM     21  O5  UNL     1     -33.256  48.847   6.591  0.00  0.00    +0.000 OA
ATOM     22  H14 UNL     1     -34.136  49.265   6.775  0.00  0.00    +0.000 HD
ENDBRANCH   2  21
BRANCH   5  23
ATOM     23  C12 UNL     1     -29.062  48.768   9.944  0.00  0.00    +0.000 C 
BRANCH  23  24
ATOM     24  O2  UNL     1     -28.732  50.127   9.864  0.00  0.00    +0.000 OA
ATOM     25  H11 UNL     1     -28.555  50.312   8.905  0.00  0.00    +0.000 HD
ENDBRANCH  23  24
ENDBRANCH   5  23
TORSDOF 8
ENDMDL
MODEL 3
REMARK VINA RESULT:      -1.2      2.423      6.411
REMARK  Name = .\Catechins.pdb
REMARK  8 active torsions:
REMARK  status: ('A' for Active; 'I' for Inactive)
REMARK    1  A    between atoms: C3_3  and  O7_19
REMARK    2  A    between atoms: C4_4  and  O6_18
REMARK    3  A    between atoms: C6_6  and  C7_7
REMARK    4  A    between atoms: C8_8  and  O5_17
REMARK    5  A    between atoms: C9_9  and  O4_16
REMARK    6  A    between atoms: C10_10  and  O3_15
REMARK    7  A    between atoms: C11_11  and  C12_13
REMARK    8  A    between atoms: C12_13  and  O2_14
REMARK                            x       y       z     vdW  Elec       q    Type
REMARK                         _______ _______ _______ _____ _____    ______ ____
ROOT
ATOM      1  C7  UNL     1     -30.239  50.505   6.924  0.00  0.00    +0.000 C 
ATOM      2  C8  UNL     1     -30.142  51.999   7.332  0.00  0.00    +0.000 C 
ATOM      3  C9  UNL     1     -29.872  52.903   6.098  0.00  0.00    +0.000 C 
ATOM      4  C10 UNL     1     -29.069  52.135   5.035  0.00  0.00    +0.000 C 
ATOM      5  C11 UNL     1     -29.816  50.814   4.638  0.00  0.00    +0.000 C 
ATOM      6  O1  UNL     1     -30.766  50.399   5.614  0.00  0.00    +0.000 OA
ENDROOT
BRANCH   1  12
ATOM      7  C1  UNL     1     -31.146  48.344   7.894  0.00  0.00    +0.000 A 
ATOM      8  C2  UNL     1     -31.991  47.651   8.766  0.00  0.00    +0.000 A 
ATOM      9  C3  UNL     1     -32.833  48.354   9.639  0.00  0.00    +0.000 A 
ATOM     10  C4  UNL     1     -32.830  49.754   9.632  0.00  0.00    +0.000 A 
ATOM     11  C5  UNL     1     -31.982  50.449   8.757  0.00  0.00    +0.000 A 
ATOM     12  C6  UNL     1     -31.123  49.750   7.891  0.00  0.00    +0.000 A 
BRANCH  10  13
ATOM     13  O6  UNL     1     -33.675  50.449  10.496  0.00  0.00    +0.000 OA
ATOM     14  H15 UNL     1     -34.199  51.260  10.187  0.00  0.00    +0.000 HD
ENDBRANCH  10  13
BRANCH   9  15
ATOM     15  O7  UNL     1     -33.675  47.667  10.510  0.00  0.00    +0.000 OA
ATOM     16  H16 UNL     1     -33.878  46.682  10.386  0.00  0.00    +0.000 HD
ENDBRANCH   9  15
ENDBRANCH   1  12
BRANCH   4  17
ATOM     17  O3  UNL     1     -28.837  52.954   3.915  0.00  0.00    +0.000 OA
ATOM     18  H12 UNL     1     -29.194  52.475   3.122  0.00  0.00    +0.000 HD
ENDBRANCH   4  17
BRANCH   3  19
ATOM     19  O4  UNL     1     -29.184  54.068   6.473  0.00  0.00    +0.000 OA
ATOM     20  H13 UNL     1     -28.383  53.775   6.981  0.00  0.00    +0.000 HD
ENDBRANCH   3  19
BRANCH   2  21
ATOM     21  O5  UNL     1     -29.164  52.172   8.331  0.00  0.00    +0.000 OA
ATOM     22  H14 UNL     1     -28.404  52.663   7.925  0.00  0.00    +0.000 HD
ENDBRANCH   2  21
BRANCH   5  23
ATOM     23  C12 UNL     1     -30.550  50.932   3.293  0.00  0.00    +0.000 C 
BRANCH  23  24
ATOM     24  O2  UNL     1     -30.671  49.666   2.706  0.00  0.00    +0.000 OA
ATOM     25  H11 UNL     1     -31.094  49.812   1.820  0.00  0.00    +0.000 HD
ENDBRANCH  23  24
ENDBRANCH   5  23
TORSDOF 8
ENDMDL
MODEL 4
REMARK VINA RESULT:      -1.1      3.202      4.815
REMARK  Name = .\Catechins.pdb
REMARK  8 active torsions:
REMARK  status: ('A' for Active; 'I' for Inactive)
REMARK    1  A    between atoms: C3_3  and  O7_19
REMARK    2  A    between atoms: C4_4  and  O6_18
REMARK    3  A    between atoms: C6_6  and  C7_7
REMARK    4  A    between atoms: C8_8  and  O5_17
REMARK    5  A    between atoms: C9_9  and  O4_16
REMARK    6  A    between atoms: C10_10  and  O3_15
REMARK    7  A    between atoms: C11_11  and  C12_13
REMARK    8  A    between atoms: C12_13  and  O2_14
REMARK                            x       y       z     vdW  Elec       q    Type
REMARK                         _______ _______ _______ _____ _____    ______ ____
ROOT
ATOM      1  C7  UNL     1     -30.693  52.639   6.806  0.00  0.00    +0.000 C 
ATOM      2  C8  UNL     1     -29.651  52.227   7.879  0.00  0.00    +0.000 C 
ATOM      3  C9  UNL     1     -30.103  52.664   9.299  0.00  0.00    +0.000 C 
ATOM      4  C10 UNL     1     -30.963  53.937   9.222  0.00  0.00    +0.000 C 
ATOM      5  C11 UNL     1     -32.185  53.711   8.265  0.00  0.00    +0.000 C 
ATOM      6  O1  UNL     1     -31.993  52.621   7.368  0.00  0.00    +0.000 OA
ENDROOT
BRANCH   1  12
ATOM      7  C1  UNL     1     -29.913  52.036   4.469  0.00  0.00    +0.000 A 
ATOM      8  C2  UNL     1     -29.892  51.176   3.368  0.00  0.00    +0.000 A 
ATOM      9  C3  UNL     1     -30.605  49.970   3.401  0.00  0.00    +0.000 A 
ATOM     10  C4  UNL     1     -31.344  49.630   4.541  0.00  0.00    +0.000 A 
ATOM     11  C5  UNL     1     -31.364  50.493   5.646  0.00  0.00    +0.000 A 
ATOM     12  C6  UNL     1     -30.637  51.695   5.625  0.00  0.00    +0.000 A 
BRANCH  10  13
ATOM     13  O6  UNL     1     -32.058  48.433   4.568  0.00  0.00    +0.000 OA
ATOM     14  H15 UNL     1     -31.695  47.609   5.034  0.00  0.00    +0.000 HD
ENDBRANCH  10  13
BRANCH   9  15
ATOM     15  O7  UNL     1     -30.586  49.110   2.306  0.00  0.00    +0.000 OA
ATOM     16  H16 UNL     1     -30.937  49.397   1.399  0.00  0.00    +0.000 HD
ENDBRANCH   9  15
ENDBRANCH   1  12
BRANCH   4  17
ATOM     17  O3  UNL     1     -31.379  54.322  10.510  0.00  0.00    +0.000 OA
ATOM     18  H12 UNL     1     -32.279  53.929  10.656  0.00  0.00    +0.000 HD
ENDBRANCH   4  17
BRANCH   3  19
ATOM     19  O4  UNL     1     -28.994  52.882  10.132  0.00  0.00    +0.000 OA
ATOM     20  H13 UNL     1     -28.947  52.108  10.751  0.00  0.00    +0.000 HD
ENDBRANCH   3  19
BRANCH   2  21
ATOM     21  O5  UNL     1     -28.382  52.743   7.553  0.00  0.00    +0.000 OA
ATOM     22  H14 UNL     1     -27.711  52.263   8.103  0.00  0.00    +0.000 HD
ENDBRANCH   2  21
BRANCH   5  23
ATOM     23  C12 UNL     1     -33.494  53.461   9.029  0.00  0.00    +0.000 C 
BRANCH  23  24
ATOM     24  O2  UNL     1     -33.361  52.327   9.840  0.00  0.00    +0.000 OA
ATOM     25  H11 UNL     1     -33.730  51.569   9.317  0.00  0.00    +0.000 HD
ENDBRANCH  23  24
ENDBRANCH   5  23
TORSDOF 8
ENDMDL
MODEL 5
REMARK VINA RESULT:      -0.6      1.625      2.044
REMARK  Name = .\Catechins.pdb
REMARK  8 active torsions:
REMARK  status: ('A' for Active; 'I' for Inactive)
REMARK    1  A    between atoms: C3_3  and  O7_19
REMARK    2  A    between atoms: C4_4  and  O6_18
REMARK    3  A    between atoms: C6_6  and  C7_7
REMARK    4  A    between atoms: C8_8  and  O5_17
REMARK    5  A    between atoms: C9_9  and  O4_16
REMARK    6  A    between atoms: C10_10  and  O3_15
REMARK    7  A    between atoms: C11_11  and  C12_13
REMARK    8  A    between atoms: C12_13  and  O2_14
REMARK                            x       y       z     vdW  Elec       q    Type
REMARK                         _______ _______ _______ _____ _____    ______ ____
ROOT
ATOM      1  C7  UNL     1     -30.723  50.912   8.053  0.00  0.00    +0.000 C 
ATOM      2  C8  UNL     1     -31.239  49.528   7.581  0.00  0.00    +0.000 C 
ATOM      3  C9  UNL     1     -32.514  49.107   8.363  0.00  0.00    +0.000 C 
ATOM      4  C10 UNL     1     -32.498  49.704   9.780  0.00  0.00    +0.000 C 
ATOM      5  C11 UNL     1     -32.343  51.263   9.713  0.00  0.00    +0.000 C 
ATOM      6  O1  UNL     1     -31.812  51.715   8.470  0.00  0.00    +0.000 OA
ENDROOT
BRANCH   1  12
ATOM      7  C1  UNL     1     -29.049  52.624   7.216  0.00  0.00    +0.000 A 
ATOM      8  C2  UNL     1     -28.389  53.287   6.177  0.00  0.00    +0.000 A 
ATOM      9  C3  UNL     1     -28.658  52.951   4.843  0.00  0.00    +0.000 A 
ATOM     10  C4  UNL     1     -29.595  51.951   4.552  0.00  0.00    +0.000 A 
ATOM     11  C5  UNL     1     -30.256  51.287   5.595  0.00  0.00    +0.000 A 
ATOM     12  C6  UNL     1     -29.978  51.607   6.935  0.00  0.00    +0.000 A 
BRANCH  10  13
ATOM     13  O6  UNL     1     -29.865  51.626   3.224  0.00  0.00    +0.000 OA
ATOM     14  H15 UNL     1     -29.129  51.583   2.529  0.00  0.00    +0.000 HD
ENDBRANCH  10  13
BRANCH   9  15
ATOM     15  O7  UNL     1     -28.002  53.608   3.805  0.00  0.00    +0.000 OA
ATOM     16  H16 UNL     1     -28.196  54.578   3.585  0.00  0.00    +0.000 HD
ENDBRANCH   9  15
ENDBRANCH   1  12
BRANCH   4  17
ATOM     17  O3  UNL     1     -33.660  49.329  10.479  0.00  0.00    +0.000 OA
ATOM     18  H12 UNL     1     -33.676  49.853  11.322  0.00  0.00    +0.000 HD
ENDBRANCH   4  17
BRANCH   3  19
ATOM     19  O4  UNL     1     -32.621  47.708   8.430  0.00  0.00    +0.000 OA
ATOM     20  H13 UNL     1     -32.784  47.481   9.382  0.00  0.00    +0.000 HD
ENDBRANCH   3  19
BRANCH   2  21
ATOM     21  O5  UNL     1     -30.220  48.562   7.687  0.00  0.00    +0.000 OA
ATOM     22  H14 UNL     1     -30.642  47.708   7.963  0.00  0.00    +0.000 HD
ENDBRANCH   2  21
BRANCH   5  23
ATOM     23  C12 UNL     1     -33.671  51.998   9.948  0.00  0.00    +0.000 C 
BRANCH  23  24
ATOM     24  O2  UNL     1     -33.579  53.310   9.464  0.00  0.00    +0.000 OA
ATOM     25  H11 UNL     1     -34.436  53.493   8.997  0.00  0.00    +0.000 HD
ENDBRANCH  23  24
ENDBRANCH   5  23
TORSDOF 8
ENDMDL
MODEL 6
REMARK VINA RESULT:      -0.2      3.002      5.615
REMARK  Name = .\Catechins.pdb
REMARK  8 active torsions:
REMARK  status: ('A' for Active; 'I' for Inactive)
REMARK    1  A    between atoms: C3_3  and  O7_19
REMARK    2  A    between atoms: C4_4  and  O6_18
REMARK    3  A    between atoms: C6_6  and  C7_7
REMARK    4  A    between atoms: C8_8  and  O5_17
REMARK    5  A    between atoms: C9_9  and  O4_16
REMARK    6  A    between atoms: C10_10  and  O3_15
REMARK    7  A    between atoms: C11_11  and  C12_13
REMARK    8  A    between atoms: C12_13  and  O2_14
REMARK                            x       y       z     vdW  Elec       q    Type
REMARK                         _______ _______ _______ _____ _____    ______ ____
ROOT
ATOM      1  C7  UNL     1     -29.454  51.788   7.179  0.00  0.00    +0.000 C 
ATOM      2  C8  UNL     1     -30.431  52.826   7.792  0.00  0.00    +0.000 C 
ATOM      3  C9  UNL     1     -29.724  53.700   8.863  0.00  0.00    +0.000 C 
ATOM      4  C10 UNL     1     -28.599  52.906   9.548  0.00  0.00    +0.000 C 
ATOM      5  C11 UNL     1     -27.587  52.362   8.480  0.00  0.00    +0.000 C 
ATOM      6  O1  UNL     1     -28.139  52.315   7.167  0.00  0.00    +0.000 OA
ENDROOT
BRANCH   1  12
ATOM      7  C1  UNL     1     -29.550  52.280   4.693  0.00  0.00    +0.000 A 
ATOM      8  C2  UNL     1     -29.970  51.967   3.397  0.00  0.00    +0.000 A 
ATOM      9  C3  UNL     1     -30.728  50.812   3.161  0.00  0.00    +0.000 A 
ATOM     10  C4  UNL     1     -31.069  49.973   4.229  0.00  0.00    +0.000 A 
ATOM     11  C5  UNL     1     -30.648  50.288   5.529  0.00  0.00    +0.000 A 
ATOM     12  C6  UNL     1     -29.873  51.435   5.770  0.00  0.00    +0.000 A 
BRANCH  10  13
ATOM     13  O6  UNL     1     -31.830  48.829   3.991  0.00  0.00    +0.000 OA
ATOM     14  H15 UNL     1     -31.554  47.924   4.354  0.00  0.00    +0.000 HD
ENDBRANCH  10  13
BRANCH   9  15
ATOM     15  O7  UNL     1     -31.147  50.496   1.871  0.00  0.00    +0.000 OA
ATOM     16  H16 UNL     1     -31.773  49.719   1.691  0.00  0.00    +0.000 HD
ENDBRANCH   9  15
ENDBRANCH   1  12
BRANCH   4  17
ATOM     17  O3  UNL     1     -27.954  53.707  10.509  0.00  0.00    +0.000 OA
ATOM     18  H12 UNL     1     -28.663  54.128  11.063  0.00  0.00    +0.000 HD
ENDBRANCH   4  17
BRANCH   3  19
ATOM     19  O4  UNL     1     -30.643  54.159   9.821  0.00  0.00    +0.000 OA
ATOM     20  H13 UNL     1     -31.460  54.427   9.325  0.00  0.00    +0.000 HD
ENDBRANCH   3  19
BRANCH   2  21
ATOM     21  O5  UNL     1     -31.568  52.179   8.313  0.00  0.00    +0.000 OA
ATOM     22  H14 UNL     1     -32.123  52.865   8.766  0.00  0.00    +0.000 HD
ENDBRANCH   2  21
BRANCH   5  23
ATOM     23  C12 UNL     1     -26.296  53.191   8.414  0.00  0.00    +0.000 C 
BRANCH  23  24
ATOM     24  O2  UNL     1     -26.264  53.926   7.221  0.00  0.00    +0.000 OA
ATOM     25  H11 UNL     1     -25.939  53.302   6.521  0.00  0.00    +0.000 HD
ENDBRANCH  23  24
ENDBRANCH   5  23
TORSDOF 8
ENDMDL
MODEL 7
REMARK VINA RESULT:       0.1      3.062      5.843
REMARK  Name = .\Catechins.pdb
REMARK  8 active torsions:
REMARK  status: ('A' for Active; 'I' for Inactive)
REMARK    1  A    between atoms: C3_3  and  O7_19
REMARK    2  A    between atoms: C4_4  and  O6_18
REMARK    3  A    between atoms: C6_6  and  C7_7
REMARK    4  A    between atoms: C8_8  and  O5_17
REMARK    5  A    between atoms: C9_9  and  O4_16
REMARK    6  A    between atoms: C10_10  and  O3_15
REMARK    7  A    between atoms: C11_11  and  C12_13
REMARK    8  A    between atoms: C12_13  and  O2_14
REMARK                            x       y       z     vdW  Elec       q    Type
REMARK                         _______ _______ _______ _____ _____    ______ ____
ROOT
ATOM      1  C7  UNL     1     -29.083  52.432   7.284  0.00  0.00    +0.000 C 
ATOM      2  C8  UNL     1     -27.836  52.982   6.543  0.00  0.00    +0.000 C 
ATOM      3  C9  UNL     1     -26.674  53.269   7.533  0.00  0.00    +0.000 C 
ATOM      4  C10 UNL     1     -27.229  53.653   8.915  0.00  0.00    +0.000 C 
ATOM      5  C11 UNL     1     -28.187  52.532   9.449  0.00  0.00    +0.000 C 
ATOM      6  O1  UNL     1     -28.678  51.684   8.416  0.00  0.00    +0.000 OA
ENDROOT
BRANCH   1  12
ATOM      7  C1  UNL     1     -30.761  50.572   6.883  0.00  0.00    +0.000 A 
ATOM      8  C2  UNL     1     -31.489  49.742   6.026  0.00  0.00    +0.000 A 
ATOM      9  C3  UNL     1     -31.360  49.876   4.637  0.00  0.00    +0.000 A 
ATOM     10  C4  UNL     1     -30.493  50.841   4.108  0.00  0.00    +0.000 A 
ATOM     11  C5  UNL     1     -29.763  51.673   4.968  0.00  0.00    +0.000 A 
ATOM     12  C6  UNL     1     -29.902  51.556   6.362  0.00  0.00    +0.000 A 
BRANCH  10  13
ATOM     13  O6  UNL     1     -30.361  50.965   2.726  0.00  0.00    +0.000 OA
ATOM     14  H15 UNL     1     -30.664  50.230   2.096  0.00  0.00    +0.000 HD
ENDBRANCH  10  13
BRANCH   9  15
ATOM     15  O7  UNL     1     -32.084  49.051   3.779  0.00  0.00    +0.000 OA
ATOM     16  H16 UNL     1     -32.319  48.098   4.031  0.00  0.00    +0.000 HD
ENDBRANCH   9  15
ENDBRANCH   1  12
BRANCH   4  17
ATOM     17  O3  UNL     1     -26.172  53.900   9.811  0.00  0.00    +0.000 OA
ATOM     18  H12 UNL     1     -25.595  53.092   9.814  0.00  0.00    +0.000 HD
ENDBRANCH   4  17
BRANCH   3  19
ATOM     19  O4  UNL     1     -25.842  54.289   7.046  0.00  0.00    +0.000 OA
ATOM     20  H13 UNL     1     -26.174  54.518   6.140  0.00  0.00    +0.000 HD
ENDBRANCH   3  19
BRANCH   2  21
ATOM     21  O5  UNL     1     -28.176  54.124   5.792  0.00  0.00    +0.000 OA
ATOM     22  H14 UNL     1     -28.204  53.859   4.837  0.00  0.00    +0.000 HD
ENDBRANCH   2  21
BRANCH   5  23
ATOM     23  C12 UNL     1     -27.520  51.641  10.507  0.00  0.00    +0.000 C 
BRANCH  23  24
ATOM     24  O2  UNL     1     -27.972  50.321  10.370  0.00  0.00    +0.000 OA
ATOM     25  H11 UNL     1     -27.563  49.810  11.116  0.00  0.00    +0.000 HD
ENDBRANCH  23  24
ENDBRANCH   5  23
TORSDOF 8
ENDMDL
