MODEL 1
REMARK VINA RESULT:      -5.3      0.000      0.000
REMARK  Name = .\Catechins.pdb
REMARK  8 active torsions:
REMARK  status: ('A' for Active; 'I' for Inactive)
REMARK    1  A    between atoms: C3_3  and  O7_19
REMARK    2  A    between atoms: C4_4  and  O6_18
REMARK    3  A    between atoms: C6_6  and  C7_7
REMARK    4  A    between atoms: C8_8  and  O5_17
REMARK    5  A    between atoms: C9_9  and  O4_16
REMARK    6  A    between atoms: C10_10  and  O3_15
REMARK    7  A    between atoms: C11_11  and  C12_13
REMARK    8  A    between atoms: C12_13  and  O2_14
REMARK                            x       y       z     vdW  Elec       q    Type
REMARK                         _______ _______ _______ _____ _____    ______ ____
ROOT
ATOM      1  C7  UNL     1     -10.085  38.693  18.009  0.00  0.00    +0.000 C 
ATOM      2  C8  UNL     1     -10.906  37.699  17.145  0.00  0.00    +0.000 C 
ATOM      3  C9  UNL     1     -11.395  38.368  15.831  0.00  0.00    +0.000 C 
ATOM      4  C10 UNL     1     -11.610  39.876  16.043  0.00  0.00    +0.000 C 
ATOM      5  C11 UNL     1     -10.297  40.543  16.584  0.00  0.00    +0.000 C 
ATOM      6  O1  UNL     1      -9.400  39.606  17.171  0.00  0.00    +0.000 OA
ENDROOT
BRANCH   1  12
ATOM      7  C1  UNL     1      -9.490  37.349  20.077  0.00  0.00    +0.000 A 
ATOM      8  C2  UNL     1      -8.559  36.691  20.884  0.00  0.00    +0.000 A 
ATOM      9  C3  UNL     1      -7.212  36.630  20.502  0.00  0.00    +0.000 A 
ATOM     10  C4  UNL     1      -6.799  37.237  19.309  0.00  0.00    +0.000 A 
ATOM     11  C5  UNL     1      -7.734  37.898  18.499  0.00  0.00    +0.000 A 
ATOM     12  C6  UNL     1      -9.089  37.946  18.869  0.00  0.00    +0.000 A 
BRANCH  10  13
ATOM     13  O6  UNL     1      -5.457  37.182  18.937  0.00  0.00    +0.000 OA
ATOM     14  H15 UNL     1      -4.976  37.993  18.566  0.00  0.00    +0.000 HD
ENDBRANCH  10  13
BRANCH   9  15
ATOM     15  O7  UNL     1      -6.280  35.974  21.303  0.00  0.00    +0.000 OA
ATOM     16  H16 UNL     1      -6.121  36.249  22.266  0.00  0.00    +0.000 HD
ENDBRANCH   9  15
ENDBRANCH   1  12
BRANCH   4  17
ATOM     17  O3  UNL     1     -12.041  40.479  14.846  0.00  0.00    +0.000 OA
ATOM     18  H12 UNL     1     -11.353  41.147  14.591  0.00  0.00    +0.000 HD
ENDBRANCH   4  17
BRANCH   3  19
ATOM     19  O4  UNL     1     -12.581  37.771  15.377  0.00  0.00    +0.000 OA
ATOM     20  H13 UNL     1     -13.286  38.002  16.036  0.00  0.00    +0.000 HD
ENDBRANCH   3  19
BRANCH   2  21
ATOM     21  O5  UNL     1     -11.977  37.170  17.891  0.00  0.00    +0.000 OA
ATOM     22  H14 UNL     1     -12.151  36.253  17.558  0.00  0.00    +0.000 HD
ENDBRANCH   2  21
BRANCH   5  23
ATOM     23  C12 UNL     1      -9.529  41.303  15.492  0.00  0.00    +0.000 C 
BRANCH  23  24
ATOM     24  O2  UNL     1      -8.737  40.409  14.759  0.00  0.00    +0.000 OA
ATOM     25  H11 UNL     1      -7.797  40.689  14.906  0.00  0.00    +0.000 HD
ENDBRANCH  23  24
ENDBRANCH   5  23
TORSDOF 8
ENDMDL
MODEL 2
REMARK VINA RESULT:      -5.1      2.108      6.331
REMARK  Name = .\Catechins.pdb
REMARK  8 active torsions:
REMARK  status: ('A' for Active; 'I' for Inactive)
REMARK    1  A    between atoms: C3_3  and  O7_19
REMARK    2  A    between atoms: C4_4  and  O6_18
REMARK    3  A    between atoms: C6_6  and  C7_7
REMARK    4  A    between atoms: C8_8  and  O5_17
REMARK    5  A    between atoms: C9_9  and  O4_16
REMARK    6  A    between atoms: C10_10  and  O3_15
REMARK    7  A    between atoms: C11_11  and  C12_13
REMARK    8  A    between atoms: C12_13  and  O2_14
REMARK                            x       y       z     vdW  Elec       q    Type
REMARK                         _______ _______ _______ _____ _____    ______ ____
ROOT
ATOM      1  C7  UNL     1      -9.437  37.646  19.448  0.00  0.00    +0.000 C 
ATOM      2  C8  UNL     1      -8.911  36.215  19.160  0.00  0.00    +0.000 C 
ATOM      3  C9  UNL     1      -9.093  35.290  20.394  0.00  0.00    +0.000 C 
ATOM      4  C10 UNL     1      -9.016  36.107  21.695  0.00  0.00    +0.000 C 
ATOM      5  C11 UNL     1     -10.073  37.266  21.674  0.00  0.00    +0.000 C 
ATOM      6  O1  UNL     1     -10.519  37.586  20.359  0.00  0.00    +0.000 OA
ENDROOT
BRANCH   1  12
ATOM      7  C1  UNL     1      -9.497  39.629  17.867  0.00  0.00    +0.000 A 
ATOM      8  C2  UNL     1      -9.944  40.251  16.699  0.00  0.00    +0.000 A 
ATOM      9  C3  UNL     1     -10.797  39.570  15.819  0.00  0.00    +0.000 A 
ATOM     10  C4  UNL     1     -11.206  38.264  16.117  0.00  0.00    +0.000 A 
ATOM     11  C5  UNL     1     -10.756  37.640  17.290  0.00  0.00    +0.000 A 
ATOM     12  C6  UNL     1      -9.887  38.312  18.167  0.00  0.00    +0.000 A 
BRANCH  10  13
ATOM     13  O6  UNL     1     -12.061  37.594  15.244  0.00  0.00    +0.000 OA
ATOM     14  H15 UNL     1     -12.557  38.082  14.508  0.00  0.00    +0.000 HD
ENDBRANCH  10  13
BRANCH   9  15
ATOM     15  O7  UNL     1     -11.244  40.186  14.653  0.00  0.00    +0.000 OA
ATOM     16  H16 UNL     1     -11.060  39.790  13.738  0.00  0.00    +0.000 HD
ENDBRANCH   9  15
ENDBRANCH   1  12
BRANCH   4  17
ATOM     17  O3  UNL     1      -9.194  35.266  22.809  0.00  0.00    +0.000 OA
ATOM     18  H12 UNL     1      -8.336  34.787  22.954  0.00  0.00    +0.000 HD
ENDBRANCH   4  17
BRANCH   3  19
ATOM     19  O4  UNL     1      -8.124  34.273  20.405  0.00  0.00    +0.000 OA
ATOM     20  H13 UNL     1      -8.016  33.975  19.465  0.00  0.00    +0.000 HD
ENDBRANCH   3  19
BRANCH   2  21
ATOM     21  O5  UNL     1      -7.569  36.262  18.736  0.00  0.00    +0.000 OA
ATOM     22  H14 UNL     1      -7.014  36.506  19.521  0.00  0.00    +0.000 HD
ENDBRANCH   2  21
BRANCH   5  23
ATOM     23  C12 UNL     1     -11.313  36.949  22.523  0.00  0.00    +0.000 C 
BRANCH  23  24
ATOM     24  O2  UNL     1     -11.695  38.085  23.249  0.00  0.00    +0.000 OA
ATOM     25  H11 UNL     1     -12.639  37.937  23.517  0.00  0.00    +0.000 HD
ENDBRANCH  23  24
ENDBRANCH   5  23
TORSDOF 8
ENDMDL
MODEL 3
REMARK VINA RESULT:      -5.0      2.160      6.228
REMARK  Name = .\Catechins.pdb
REMARK  8 active torsions:
REMARK  status: ('A' for Active; 'I' for Inactive)
REMARK    1  A    between atoms: C3_3  and  O7_19
REMARK    2  A    between atoms: C4_4  and  O6_18
REMARK    3  A    between atoms: C6_6  and  C7_7
REMARK    4  A    between atoms: C8_8  and  O5_17
REMARK    5  A    between atoms: C9_9  and  O4_16
REMARK    6  A    between atoms: C10_10  and  O3_15
REMARK    7  A    between atoms: C11_11  and  C12_13
REMARK    8  A    between atoms: C12_13  and  O2_14
REMARK                            x       y       z     vdW  Elec       q    Type
REMARK                         _______ _______ _______ _____ _____    ______ ____
ROOT
ATOM      1  C7  UNL     1      -9.529  37.607  19.501  0.00  0.00    +0.000 C 
ATOM      2  C8  UNL     1      -8.997  36.183  19.191  0.00  0.00    +0.000 C 
ATOM      3  C9  UNL     1      -9.139  35.249  20.424  0.00  0.00    +0.000 C 
ATOM      4  C10 UNL     1      -9.038  36.059  21.728  0.00  0.00    +0.000 C 
ATOM      5  C11 UNL     1     -10.107  37.207  21.739  0.00  0.00    +0.000 C 
ATOM      6  O1  UNL     1     -10.588  37.530  20.438  0.00  0.00    +0.000 OA
ENDROOT
BRANCH   1  12
ATOM      7  C1  UNL     1     -11.000  37.664  17.435  0.00  0.00    +0.000 A 
ATOM      8  C2  UNL     1     -11.423  38.269  16.248  0.00  0.00    +0.000 A 
ATOM      9  C3  UNL     1     -10.862  39.487  15.838  0.00  0.00    +0.000 A 
ATOM     10  C4  UNL     1      -9.870  40.094  16.619  0.00  0.00    +0.000 A 
ATOM     11  C5  UNL     1      -9.447  39.486  17.810  0.00  0.00    +0.000 A 
ATOM     12  C6  UNL     1     -10.018  38.275  18.235  0.00  0.00    +0.000 A 
BRANCH  10  13
ATOM     13  O6  UNL     1      -9.309  41.301  16.204  0.00  0.00    +0.000 OA
ATOM     14  H15 UNL     1      -9.280  42.109  16.813  0.00  0.00    +0.000 HD
ENDBRANCH  10  13
BRANCH   9  15
ATOM     15  O7  UNL     1     -11.281  40.093  14.657  0.00  0.00    +0.000 OA
ATOM     16  H16 UNL     1     -11.679  41.026  14.651  0.00  0.00    +0.000 HD
ENDBRANCH   9  15
ENDBRANCH   1  12
BRANCH   4  17
ATOM     17  O3  UNL     1      -9.179  35.210  22.841  0.00  0.00    +0.000 OA
ATOM     18  H12 UNL     1      -8.272  35.070  23.219  0.00  0.00    +0.000 HD
ENDBRANCH   4  17
BRANCH   3  19
ATOM     19  O4  UNL     1      -8.159  34.243  20.405  0.00  0.00    +0.000 OA
ATOM     20  H13 UNL     1      -8.135  33.852  21.317  0.00  0.00    +0.000 HD
ENDBRANCH   3  19
BRANCH   2  21
ATOM     21  O5  UNL     1      -7.666  36.246  18.735  0.00  0.00    +0.000 OA
ATOM     22  H14 UNL     1      -7.165  35.505  19.164  0.00  0.00    +0.000 HD
ENDBRANCH   2  21
BRANCH   5  23
ATOM     23  C12 UNL     1     -11.323  36.872  22.617  0.00  0.00    +0.000 C 
BRANCH  23  24
ATOM     24  O2  UNL     1     -11.826  38.044  23.197  0.00  0.00    +0.000 OA
ATOM     25  H11 UNL     1     -11.929  38.697  22.456  0.00  0.00    +0.000 HD
ENDBRANCH  23  24
ENDBRANCH   5  23
TORSDOF 8
ENDMDL
MODEL 4
REMARK VINA RESULT:      -4.9      2.190      3.516
REMARK  Name = .\Catechins.pdb
REMARK  8 active torsions:
REMARK  status: ('A' for Active; 'I' for Inactive)
REMARK    1  A    between atoms: C3_3  and  O7_19
REMARK    2  A    between atoms: C4_4  and  O6_18
REMARK    3  A    between atoms: C6_6  and  C7_7
REMARK    4  A    between atoms: C8_8  and  O5_17
REMARK    5  A    between atoms: C9_9  and  O4_16
REMARK    6  A    between atoms: C10_10  and  O3_15
REMARK    7  A    between atoms: C11_11  and  C12_13
REMARK    8  A    between atoms: C12_13  and  O2_14
REMARK                            x       y       z     vdW  Elec       q    Type
REMARK                         _______ _______ _______ _____ _____    ______ ____
ROOT
ATOM      1  C7  UNL     1      -9.903  37.399  19.087  0.00  0.00    +0.000 C 
ATOM      2  C8  UNL     1      -8.753  38.037  18.264  0.00  0.00    +0.000 C 
ATOM      3  C9  UNL     1      -9.299  39.080  17.249  0.00  0.00    +0.000 C 
ATOM      4  C10 UNL     1     -10.719  38.698  16.797  0.00  0.00    +0.000 C 
ATOM      5  C11 UNL     1     -11.663  38.543  18.040  0.00  0.00    +0.000 C 
ATOM      6  O1  UNL     1     -10.950  38.337  19.256  0.00  0.00    +0.000 OA
ENDROOT
BRANCH   1  12
ATOM      7  C1  UNL     1      -8.021  36.795  20.676  0.00  0.00    +0.000 A 
ATOM      8  C2  UNL     1      -7.561  36.348  21.918  0.00  0.00    +0.000 A 
ATOM      9  C3  UNL     1      -8.472  36.039  22.937  0.00  0.00    +0.000 A 
ATOM     10  C4  UNL     1      -9.847  36.174  22.707  0.00  0.00    +0.000 A 
ATOM     11  C5  UNL     1     -10.307  36.623  21.460  0.00  0.00    +0.000 A 
ATOM     12  C6  UNL     1      -9.398  36.951  20.440  0.00  0.00    +0.000 A 
BRANCH  10  13
ATOM     13  O6  UNL     1     -10.750  35.858  23.720  0.00  0.00    +0.000 OA
ATOM     14  H15 UNL     1     -11.725  35.666  23.521  0.00  0.00    +0.000 HD
ENDBRANCH  10  13
BRANCH   9  15
ATOM     15  O7  UNL     1      -8.019  35.594  24.177  0.00  0.00    +0.000 OA
ATOM     16  H16 UNL     1      -7.137  35.103  24.274  0.00  0.00    +0.000 HD
ENDBRANCH   9  15
ENDBRANCH   1  12
BRANCH   4  17
ATOM     17  O3  UNL     1     -11.213  39.651  15.888  0.00  0.00    +0.000 OA
ATOM     18  H12 UNL     1     -10.746  39.502  15.025  0.00  0.00    +0.000 HD
ENDBRANCH   4  17
BRANCH   3  19
ATOM     19  O4  UNL     1      -8.451  39.186  16.135  0.00  0.00    +0.000 OA
ATOM     20  H13 UNL     1      -8.927  38.762  15.374  0.00  0.00    +0.000 HD
ENDBRANCH   3  19
BRANCH   2  21
ATOM     21  O5  UNL     1      -7.993  37.038  17.627  0.00  0.00    +0.000 OA
ATOM     22  H14 UNL     1      -7.083  37.055  18.020  0.00  0.00    +0.000 HD
ENDBRANCH   2  21
BRANCH   5  23
ATOM     23  C12 UNL     1     -12.581  39.759  18.238  0.00  0.00    +0.000 C 
BRANCH  23  24
ATOM     24  O2  UNL     1     -11.808  40.909  18.444  0.00  0.00    +0.000 OA
ATOM     25  H11 UNL     1     -12.261  41.639  17.947  0.00  0.00    +0.000 HD
ENDBRANCH  23  24
ENDBRANCH   5  23
TORSDOF 8
ENDMDL
MODEL 5
REMARK VINA RESULT:      -4.9      0.661      1.568
REMARK  Name = .\Catechins.pdb
REMARK  8 active torsions:
REMARK  status: ('A' for Active; 'I' for Inactive)
REMARK    1  A    between atoms: C3_3  and  O7_19
REMARK    2  A    between atoms: C4_4  and  O6_18
REMARK    3  A    between atoms: C6_6  and  C7_7
REMARK    4  A    between atoms: C8_8  and  O5_17
REMARK    5  A    between atoms: C9_9  and  O4_16
REMARK    6  A    between atoms: C10_10  and  O3_15
REMARK    7  A    between atoms: C11_11  and  C12_13
REMARK    8  A    between atoms: C12_13  and  O2_14
REMARK                            x       y       z     vdW  Elec       q    Type
REMARK                         _______ _______ _______ _____ _____    ______ ____
ROOT
ATOM      1  C7  UNL     1     -10.096  38.757  17.891  0.00  0.00    +0.000 C 
ATOM      2  C8  UNL     1     -10.901  37.729  17.052  0.00  0.00    +0.000 C 
ATOM      3  C9  UNL     1     -11.392  38.355  15.718  0.00  0.00    +0.000 C 
ATOM      4  C10 UNL     1     -11.627  39.866  15.887  0.00  0.00    +0.000 C 
ATOM      5  C11 UNL     1     -10.325  40.564  16.414  0.00  0.00    +0.000 C 
ATOM      6  O1  UNL     1      -9.419  39.654  17.030  0.00  0.00    +0.000 OA
ENDROOT
BRANCH   1  12
ATOM      7  C1  UNL     1      -7.754  37.909  18.373  0.00  0.00    +0.000 A 
ATOM      8  C2  UNL     1      -6.841  37.222  19.178  0.00  0.00    +0.000 A 
ATOM      9  C3  UNL     1      -7.257  36.654  20.390  0.00  0.00    +0.000 A 
ATOM     10  C4  UNL     1      -8.594  36.771  20.791  0.00  0.00    +0.000 A 
ATOM     11  C5  UNL     1      -9.509  37.460  19.983  0.00  0.00    +0.000 A 
ATOM     12  C6  UNL     1      -9.094  38.047  18.775  0.00  0.00    +0.000 A 
BRANCH  10  13
ATOM     13  O6  UNL     1      -9.005  36.197  21.993  0.00  0.00    +0.000 OA
ATOM     14  H15 UNL     1      -9.108  36.750  22.836  0.00  0.00    +0.000 HD
ENDBRANCH  10  13
BRANCH   9  15
ATOM     15  O7  UNL     1      -6.349  35.970  21.195  0.00  0.00    +0.000 OA
ATOM     16  H16 UNL     1      -5.364  35.920  20.961  0.00  0.00    +0.000 HD
ENDBRANCH   9  15
ENDBRANCH   1  12
BRANCH   4  17
ATOM     17  O3  UNL     1     -12.061  40.429  14.672  0.00  0.00    +0.000 OA
ATOM     18  H12 UNL     1     -13.048  40.337  14.643  0.00  0.00    +0.000 HD
ENDBRANCH   4  17
BRANCH   3  19
ATOM     19  O4  UNL     1     -12.570  37.731  15.276  0.00  0.00    +0.000 OA
ATOM     20  H13 UNL     1     -13.323  38.191  15.729  0.00  0.00    +0.000 HD
ENDBRANCH   3  19
BRANCH   2  21
ATOM     21  O5  UNL     1     -11.968  37.208  17.808  0.00  0.00    +0.000 OA
ATOM     22  H14 UNL     1     -11.954  36.221  17.708  0.00  0.00    +0.000 HD
ENDBRANCH   2  21
BRANCH   5  23
ATOM     23  C12 UNL     1      -9.562  41.303  15.304  0.00  0.00    +0.000 C 
BRANCH  23  24
ATOM     24  O2  UNL     1      -8.762  40.398  14.594  0.00  0.00    +0.000 OA
ATOM     25  H11 UNL     1      -8.798  40.684  13.645  0.00  0.00    +0.000 HD
ENDBRANCH  23  24
ENDBRANCH   5  23
TORSDOF 8
ENDMDL
MODEL 6
REMARK VINA RESULT:      -4.9      1.897      3.568
REMARK  Name = .\Catechins.pdb
REMARK  8 active torsions:
REMARK  status: ('A' for Active; 'I' for Inactive)
REMARK    1  A    between atoms: C3_3  and  O7_19
REMARK    2  A    between atoms: C4_4  and  O6_18
REMARK    3  A    between atoms: C6_6  and  C7_7
REMARK    4  A    between atoms: C8_8  and  O5_17
REMARK    5  A    between atoms: C9_9  and  O4_16
REMARK    6  A    between atoms: C10_10  and  O3_15
REMARK    7  A    between atoms: C11_11  and  C12_13
REMARK    8  A    between atoms: C12_13  and  O2_14
REMARK                            x       y       z     vdW  Elec       q    Type
REMARK                         _______ _______ _______ _____ _____    ______ ____
ROOT
ATOM      1  C7  UNL     1      -9.419  37.684  18.525  0.00  0.00    +0.000 C 
ATOM      2  C8  UNL     1      -9.130  39.201  18.377  0.00  0.00    +0.000 C 
ATOM      3  C9  UNL     1      -9.936  39.816  17.200  0.00  0.00    +0.000 C 
ATOM      4  C10 UNL     1     -10.175  38.763  16.104  0.00  0.00    +0.000 C 
ATOM      5  C11 UNL     1     -10.889  37.503  16.706  0.00  0.00    +0.000 C 
ATOM      6  O1  UNL     1     -10.748  37.407  18.120  0.00  0.00    +0.000 OA
ENDROOT
BRANCH   1  12
ATOM      7  C1  UNL     1      -7.968  36.796  20.406  0.00  0.00    +0.000 A 
ATOM      8  C2  UNL     1      -7.801  36.360  21.723  0.00  0.00    +0.000 A 
ATOM      9  C3  UNL     1      -8.888  36.356  22.608  0.00  0.00    +0.000 A 
ATOM     10  C4  UNL     1     -10.146  36.784  22.167  0.00  0.00    +0.000 A 
ATOM     11  C5  UNL     1     -10.313  37.222  20.846  0.00  0.00    +0.000 A 
ATOM     12  C6  UNL     1      -9.223  37.246  19.959  0.00  0.00    +0.000 A 
BRANCH  10  13
ATOM     13  O6  UNL     1     -11.226  36.770  23.048  0.00  0.00    +0.000 OA
ATOM     14  H15 UNL     1     -12.173  36.937  22.728  0.00  0.00    +0.000 HD
ENDBRANCH  10  13
BRANCH   9  15
ATOM     15  O7  UNL     1      -8.725  35.922  23.922  0.00  0.00    +0.000 OA
ATOM     16  H16 UNL     1      -7.893  35.424  24.217  0.00  0.00    +0.000 HD
ENDBRANCH   9  15
ENDBRANCH   1  12
BRANCH   4  17
ATOM     17  O3  UNL     1     -10.916  39.322  15.046  0.00  0.00    +0.000 OA
ATOM     18  H12 UNL     1     -11.741  38.780  14.949  0.00  0.00    +0.000 HD
ENDBRANCH   4  17
BRANCH   3  19
ATOM     19  O4  UNL     1      -9.268  40.928  16.663  0.00  0.00    +0.000 OA
ATOM     20  H13 UNL     1      -8.982  40.673  15.748  0.00  0.00    +0.000 HD
ENDBRANCH   3  19
BRANCH   2  21
ATOM     21  O5  UNL     1      -7.747  39.424  18.235  0.00  0.00    +0.000 OA
ATOM     22  H14 UNL     1      -7.467  39.041  17.364  0.00  0.00    +0.000 HD
ENDBRANCH   2  21
BRANCH   5  23
ATOM     23  C12 UNL     1     -12.391  37.466  16.384  0.00  0.00    +0.000 C 
BRANCH  23  24
ATOM     24  O2  UNL     1     -12.581  37.067  15.054  0.00  0.00    +0.000 OA
ATOM     25  H11 UNL     1     -11.675  36.990  14.656  0.00  0.00    +0.000 HD
ENDBRANCH  23  24
ENDBRANCH   5  23
TORSDOF 8
ENDMDL
MODEL 7
REMARK VINA RESULT:      -4.7      1.564      6.383
REMARK  Name = .\Catechins.pdb
REMARK  8 active torsions:
REMARK  status: ('A' for Active; 'I' for Inactive)
REMARK    1  A    between atoms: C3_3  and  O7_19
REMARK    2  A    between atoms: C4_4  and  O6_18
REMARK    3  A    between atoms: C6_6  and  C7_7
REMARK    4  A    between atoms: C8_8  and  O5_17
REMARK    5  A    between atoms: C9_9  and  O4_16
REMARK    6  A    between atoms: C10_10  and  O3_15
REMARK    7  A    between atoms: C11_11  and  C12_13
REMARK    8  A    between atoms: C12_13  and  O2_14
REMARK                            x       y       z     vdW  Elec       q    Type
REMARK                         _______ _______ _______ _____ _____    ______ ____
ROOT
ATOM      1  C7  UNL     1      -9.770  38.223  19.017  0.00  0.00    +0.000 C 
ATOM      2  C8  UNL     1      -8.377  37.658  18.633  0.00  0.00    +0.000 C 
ATOM      3  C9  UNL     1      -7.926  36.551  19.626  0.00  0.00    +0.000 C 
ATOM      4  C10 UNL     1      -8.516  36.809  21.023  0.00  0.00    +0.000 C 
ATOM      5  C11 UNL     1     -10.079  36.918  20.942  0.00  0.00    +0.000 C 
ATOM      6  O1  UNL     1     -10.547  37.209  19.629  0.00  0.00    +0.000 OA
ENDROOT
BRANCH   1  12
ATOM      7  C1  UNL     1     -10.607  40.124  17.561  0.00  0.00    +0.000 A 
ATOM      8  C2  UNL     1     -11.300  40.598  16.444  0.00  0.00    +0.000 A 
ATOM      9  C3  UNL     1     -11.891  39.699  15.547  0.00  0.00    +0.000 A 
ATOM     10  C4  UNL     1     -11.792  38.320  15.775  0.00  0.00    +0.000 A 
ATOM     11  C5  UNL     1     -11.096  37.845  16.897  0.00  0.00    +0.000 A 
ATOM     12  C6  UNL     1     -10.486  38.742  17.790  0.00  0.00    +0.000 A 
BRANCH  10  13
ATOM     13  O6  UNL     1     -12.388  37.429  14.885  0.00  0.00    +0.000 OA
ATOM     14  H15 UNL     1     -12.145  36.446  14.877  0.00  0.00    +0.000 HD
ENDBRANCH  10  13
BRANCH   9  15
ATOM     15  O7  UNL     1     -12.581  40.167  14.431  0.00  0.00    +0.000 OA
ATOM     16  H16 UNL     1     -13.566  40.403  14.477  0.00  0.00    +0.000 HD
ENDBRANCH   9  15
ENDBRANCH   1  12
BRANCH   4  17
ATOM     17  O3  UNL     1      -8.113  35.798  21.915  0.00  0.00    +0.000 OA
ATOM     18  H12 UNL     1      -7.617  36.239  22.653  0.00  0.00    +0.000 HD
ENDBRANCH   4  17
BRANCH   3  19
ATOM     19  O4  UNL     1      -6.525  36.486  19.699  0.00  0.00    +0.000 OA
ATOM     20  H13 UNL     1      -6.308  35.818  20.400  0.00  0.00    +0.000 HD
ENDBRANCH   3  19
BRANCH   2  21
ATOM     21  O5  UNL     1      -7.433  38.698  18.547  0.00  0.00    +0.000 OA
ATOM     22  H14 UNL     1      -7.442  39.186  19.410  0.00  0.00    +0.000 HD
ENDBRANCH   2  21
BRANCH   5  23
ATOM     23  C12 UNL     1     -10.784  35.639  21.417  0.00  0.00    +0.000 C 
BRANCH  23  24
ATOM     24  O2  UNL     1     -10.576  34.610  20.489  0.00  0.00    +0.000 OA
ATOM     25  H11 UNL     1      -9.840  34.053  20.855  0.00  0.00    +0.000 HD
ENDBRANCH  23  24
ENDBRANCH   5  23
TORSDOF 8
ENDMDL
MODEL 8
REMARK VINA RESULT:      -4.2      1.634      3.324
REMARK  Name = .\Catechins.pdb
REMARK  8 active torsions:
REMARK  status: ('A' for Active; 'I' for Inactive)
REMARK    1  A    between atoms: C3_3  and  O7_19
REMARK    2  A    between atoms: C4_4  and  O6_18
REMARK    3  A    between atoms: C6_6  and  C7_7
REMARK    4  A    between atoms: C8_8  and  O5_17
REMARK    5  A    between atoms: C9_9  and  O4_16
REMARK    6  A    between atoms: C10_10  and  O3_15
REMARK    7  A    between atoms: C11_11  and  C12_13
REMARK    8  A    between atoms: C12_13  and  O2_14
REMARK                            x       y       z     vdW  Elec       q    Type
REMARK                         _______ _______ _______ _____ _____    ______ ____
ROOT
ATOM      1  C7  UNL     1      -9.176  36.894  18.798  0.00  0.00    +0.000 C 
ATOM      2  C8  UNL     1      -8.439  38.215  18.452  0.00  0.00    +0.000 C 
ATOM      3  C9  UNL     1      -9.335  39.150  17.593  0.00  0.00    +0.000 C 
ATOM      4  C10 UNL     1     -10.301  38.323  16.728  0.00  0.00    +0.000 C 
ATOM      5  C11 UNL     1     -11.154  37.363  17.629  0.00  0.00    +0.000 C 
ATOM      6  O1  UNL     1     -10.567  37.134  18.906  0.00  0.00    +0.000 OA
ENDROOT
BRANCH   1  12
ATOM      7  C1  UNL     1      -9.400  35.370  20.813  0.00  0.00    +0.000 A 
ATOM      8  C2  UNL     1      -8.931  34.873  22.032  0.00  0.00    +0.000 A 
ATOM      9  C3  UNL     1      -7.716  35.332  22.560  0.00  0.00    +0.000 A 
ATOM     10  C4  UNL     1      -6.975  36.296  21.865  0.00  0.00    +0.000 A 
ATOM     11  C5  UNL     1      -7.447  36.795  20.642  0.00  0.00    +0.000 A 
ATOM     12  C6  UNL     1      -8.655  36.325  20.099  0.00  0.00    +0.000 A 
BRANCH  10  13
ATOM     13  O6  UNL     1      -5.772  36.757  22.398  0.00  0.00    +0.000 OA
ATOM     14  H15 UNL     1      -5.435  37.694  22.214  0.00  0.00    +0.000 HD
ENDBRANCH  10  13
BRANCH   9  15
ATOM     15  O7  UNL     1      -7.244  34.838  23.774  0.00  0.00    +0.000 OA
ATOM     16  H16 UNL     1      -6.259  34.658  23.927  0.00  0.00    +0.000 HD
ENDBRANCH   9  15
ENDBRANCH   1  12
BRANCH   4  17
ATOM     17  O3  UNL     1     -11.118  39.175  15.961  0.00  0.00    +0.000 OA
ATOM     18  H12 UNL     1     -10.517  39.720  15.389  0.00  0.00    +0.000 HD
ENDBRANCH   4  17
BRANCH   3  19
ATOM     19  O4  UNL     1      -8.552  39.984  16.779  0.00  0.00    +0.000 OA
ATOM     20  H13 UNL     1      -8.714  40.914  17.086  0.00  0.00    +0.000 HD
ENDBRANCH   3  19
BRANCH   2  21
ATOM     21  O5  UNL     1      -7.213  37.941  17.817  0.00  0.00    +0.000 OA
ATOM     22  H14 UNL     1      -6.510  37.918  18.517  0.00  0.00    +0.000 HD
ENDBRANCH   2  21
BRANCH   5  23
ATOM     23  C12 UNL     1     -12.581  37.884  17.858  0.00  0.00    +0.000 C 
BRANCH  23  24
ATOM     24  O2  UNL     1     -12.546  39.021  18.677  0.00  0.00    +0.000 OA
ATOM     25  H11 UNL     1     -12.291  39.777  18.087  0.00  0.00    +0.000 HD
ENDBRANCH  23  24
ENDBRANCH   5  23
TORSDOF 8
ENDMDL
MODEL 9
REMARK VINA RESULT:      -4.1      1.949      2.353
REMARK  Name = .\Catechins.pdb
REMARK  8 active torsions:
REMARK  status: ('A' for Active; 'I' for Inactive)
REMARK    1  A    between atoms: C3_3  and  O7_19
REMARK    2  A    between atoms: C4_4  and  O6_18
REMARK    3  A    between atoms: C6_6  and  C7_7
REMARK    4  A    between atoms: C8_8  and  O5_17
REMARK    5  A    between atoms: C9_9  and  O4_16
REMARK    6  A    between atoms: C10_10  and  O3_15
REMARK    7  A    between atoms: C11_11  and  C12_13
REMARK    8  A    between atoms: C12_13  and  O2_14
REMARK                            x       y       z     vdW  Elec       q    Type
REMARK                         _______ _______ _______ _____ _____    ______ ____
ROOT
ATOM      1  C7  UNL     1     -10.705  37.906  19.319  0.00  0.00    +0.000 C 
ATOM      2  C8  UNL     1     -11.270  36.998  18.195  0.00  0.00    +0.000 C 
ATOM      3  C9  UNL     1     -11.550  37.813  16.902  0.00  0.00    +0.000 C 
ATOM      4  C10 UNL     1     -11.915  39.266  17.250  0.00  0.00    +0.000 C 
ATOM      5  C11 UNL     1     -10.783  39.919  18.118  0.00  0.00    +0.000 C 
ATOM      6  O1  UNL     1      -9.945  38.957  18.751  0.00  0.00    +0.000 OA
ENDROOT
BRANCH   1  12
ATOM      7  C1  UNL     1      -9.238  35.902  19.836  0.00  0.00    +0.000 A 
ATOM      8  C2  UNL     1      -8.464  35.145  20.720  0.00  0.00    +0.000 A 
ATOM      9  C3  UNL     1      -8.288  35.570  22.044  0.00  0.00    +0.000 A 
ATOM     10  C4  UNL     1      -8.894  36.754  22.482  0.00  0.00    +0.000 A 
ATOM     11  C5  UNL     1      -9.670  37.513  21.594  0.00  0.00    +0.000 A 
ATOM     12  C6  UNL     1      -9.836  37.102  20.260  0.00  0.00    +0.000 A 
BRANCH  10  13
ATOM     13  O6  UNL     1      -8.723  37.169  23.801  0.00  0.00    +0.000 OA
ATOM     14  H15 UNL     1      -9.511  37.281  24.428  0.00  0.00    +0.000 HD
ENDBRANCH  10  13
BRANCH   9  15
ATOM     15  O7  UNL     1      -7.517  34.819  22.928  0.00  0.00    +0.000 OA
ATOM     16  H16 UNL     1      -6.649  35.176  23.311  0.00  0.00    +0.000 HD
ENDBRANCH   9  15
ENDBRANCH   1  12
BRANCH   4  17
ATOM     17  O3  UNL     1     -12.156  40.002  16.076  0.00  0.00    +0.000 OA
ATOM     18  H12 UNL     1     -12.068  40.963  16.309  0.00  0.00    +0.000 HD
ENDBRANCH   4  17
BRANCH   3  19
ATOM     19  O4  UNL     1     -12.581  37.224  16.152  0.00  0.00    +0.000 OA
ATOM     20  H13 UNL     1     -12.456  36.242  16.222  0.00  0.00    +0.000 HD
ENDBRANCH   3  19
BRANCH   2  21
ATOM     21  O5  UNL     1     -12.419  36.320  18.643  0.00  0.00    +0.000 OA
ATOM     22  H14 UNL     1     -12.415  35.417  18.234  0.00  0.00    +0.000 HD
ENDBRANCH   2  21
BRANCH   5  23
ATOM     23  C12 UNL     1      -9.882  40.858  17.301  0.00  0.00    +0.000 C 
BRANCH  23  24
ATOM     24  O2  UNL     1      -9.101  40.109  16.410  0.00  0.00    +0.000 OA
ATOM     25  H11 UNL     1      -8.614  40.767  15.850  0.00  0.00    +0.000 HD
ENDBRANCH  23  24
ENDBRANCH   5  23
TORSDOF 8
ENDMDL
