MODEL 1
REMARK VINA RESULT:      -5.9      0.000      0.000
REMARK  Name = .\Catechins.pdb
REMARK  8 active torsions:
REMARK  status: ('A' for Active; 'I' for Inactive)
REMARK    1  A    between atoms: C3_3  and  O7_19
REMARK    2  A    between atoms: C4_4  and  O6_18
REMARK    3  A    between atoms: C6_6  and  C7_7
REMARK    4  A    between atoms: C8_8  and  O5_17
REMARK    5  A    between atoms: C9_9  and  O4_16
REMARK    6  A    between atoms: C10_10  and  O3_15
REMARK    7  A    between atoms: C11_11  and  C12_13
REMARK    8  A    between atoms: C12_13  and  O2_14
REMARK                            x       y       z     vdW  Elec       q    Type
REMARK                         _______ _______ _______ _____ _____    ______ ____
ROOT
ATOM      1  C7  UNL     1       8.967  49.920  21.630  0.00  0.00    +0.000 C 
ATOM      2  C8  UNL     1       9.018  51.458  21.828  0.00  0.00    +0.000 C 
ATOM      3  C9  UNL     1      10.247  51.874  22.682  0.00  0.00    +0.000 C 
ATOM      4  C10 UNL     1      10.619  50.757  23.671  0.00  0.00    +0.000 C 
ATOM      5  C11 UNL     1      10.871  49.412  22.903  0.00  0.00    +0.000 C 
ATOM      6  O1  UNL     1      10.283  49.395  21.606  0.00  0.00    +0.000 OA
ENDROOT
BRANCH   1  12
ATOM      7  C1  UNL     1       7.469  48.418  20.239  0.00  0.00    +0.000 A 
ATOM      8  C2  UNL     1       6.846  48.088  19.032  0.00  0.00    +0.000 A 
ATOM      9  C3  UNL     1       7.013  48.904  17.905  0.00  0.00    +0.000 A 
ATOM     10  C4  UNL     1       7.812  50.051  17.989  0.00  0.00    +0.000 A 
ATOM     11  C5  UNL     1       8.438  50.382  19.200  0.00  0.00    +0.000 A 
ATOM     12  C6  UNL     1       8.260  49.577  20.338  0.00  0.00    +0.000 A 
BRANCH  10  13
ATOM     13  O6  UNL     1       7.983  50.856  16.864  0.00  0.00    +0.000 OA
ATOM     14  H15 UNL     1       8.776  51.480  16.773  0.00  0.00    +0.000 HD
ENDBRANCH  10  13
BRANCH   9  15
ATOM     15  O7  UNL     1       6.392  48.579  16.702  0.00  0.00    +0.000 OA
ATOM     16  H16 UNL     1       6.898  48.592  15.823  0.00  0.00    +0.000 HD
ENDBRANCH   9  15
ENDBRANCH   1  12
BRANCH   4  17
ATOM     17  O3  UNL     1      11.740  51.135  24.433  0.00  0.00    +0.000 OA
ATOM     18  H12 UNL     1      12.521  51.147  23.819  0.00  0.00    +0.000 HD
ENDBRANCH   4  17
BRANCH   3  19
ATOM     19  O4  UNL     1       9.993  53.068  23.376  0.00  0.00    +0.000 OA
ATOM     20  H13 UNL     1      10.819  53.284  23.881  0.00  0.00    +0.000 HD
ENDBRANCH   3  19
BRANCH   2  21
ATOM     21  O5  UNL     1       7.812  51.919  22.390  0.00  0.00    +0.000 OA
ATOM     22  H14 UNL     1       7.975  52.831  22.746  0.00  0.00    +0.000 HD
ENDBRANCH   2  21
BRANCH   5  23
ATOM     23  C12 UNL     1      12.365  49.096  22.742  0.00  0.00    +0.000 C 
BRANCH  23  24
ATOM     24  O2  UNL     1      12.725  49.178  21.390  0.00  0.00    +0.000 OA
ATOM     25  H11 UNL     1      13.119  50.080  21.263  0.00  0.00    +0.000 HD
ENDBRANCH  23  24
ENDBRANCH   5  23
TORSDOF 8
ENDMDL
MODEL 2
REMARK VINA RESULT:      -5.4      0.679      1.568
REMARK  Name = .\Catechins.pdb
REMARK  8 active torsions:
REMARK  status: ('A' for Active; 'I' for Inactive)
REMARK    1  A    between atoms: C3_3  and  O7_19
REMARK    2  A    between atoms: C4_4  and  O6_18
REMARK    3  A    between atoms: C6_6  and  C7_7
REMARK    4  A    between atoms: C8_8  and  O5_17
REMARK    5  A    between atoms: C9_9  and  O4_16
REMARK    6  A    between atoms: C10_10  and  O3_15
REMARK    7  A    between atoms: C11_11  and  C12_13
REMARK    8  A    between atoms: C12_13  and  O2_14
REMARK                            x       y       z     vdW  Elec       q    Type
REMARK                         _______ _______ _______ _____ _____    ______ ____
ROOT
ATOM      1  C7  UNL     1       8.937  49.912  21.519  0.00  0.00    +0.000 C 
ATOM      2  C8  UNL     1       9.025  51.448  21.720  0.00  0.00    +0.000 C 
ATOM      3  C9  UNL     1      10.206  51.826  22.656  0.00  0.00    +0.000 C 
ATOM      4  C10 UNL     1      10.472  50.700  23.669  0.00  0.00    +0.000 C 
ATOM      5  C11 UNL     1      10.731  49.345  22.921  0.00  0.00    +0.000 C 
ATOM      6  O1  UNL     1      10.233  49.344  21.586  0.00  0.00    +0.000 OA
ENDROOT
BRANCH   1  12
ATOM      7  C1  UNL     1       8.530  50.417  19.067  0.00  0.00    +0.000 A 
ATOM      8  C2  UNL     1       7.920  50.133  17.842  0.00  0.00    +0.000 A 
ATOM      9  C3  UNL     1       7.071  49.025  17.717  0.00  0.00    +0.000 A 
ATOM     10  C4  UNL     1       6.831  48.204  18.826  0.00  0.00    +0.000 A 
ATOM     11  C5  UNL     1       7.444  48.489  20.055  0.00  0.00    +0.000 A 
ATOM     12  C6  UNL     1       8.309  49.589  20.182  0.00  0.00    +0.000 A 
BRANCH  10  13
ATOM     13  O6  UNL     1       5.980  47.107  18.700  0.00  0.00    +0.000 OA
ATOM     14  H15 UNL     1       6.163  46.235  19.183  0.00  0.00    +0.000 HD
ENDBRANCH  10  13
BRANCH   9  15
ATOM     15  O7  UNL     1       6.462  48.738  16.498  0.00  0.00    +0.000 OA
ATOM     16  H16 UNL     1       5.908  47.899  16.366  0.00  0.00    +0.000 HD
ENDBRANCH   9  15
ENDBRANCH   1  12
BRANCH   4  17
ATOM     17  O3  UNL     1      11.549  51.042  24.506  0.00  0.00    +0.000 OA
ATOM     18  H12 UNL     1      11.693  52.020  24.413  0.00  0.00    +0.000 HD
ENDBRANCH   4  17
BRANCH   3  19
ATOM     19  O4  UNL     1       9.944  53.029  23.331  0.00  0.00    +0.000 OA
ATOM     20  H13 UNL     1       9.866  53.733  22.636  0.00  0.00    +0.000 HD
ENDBRANCH   3  19
BRANCH   2  21
ATOM     21  O5  UNL     1       7.800  51.951  22.196  0.00  0.00    +0.000 OA
ATOM     22  H14 UNL     1       7.995  52.759  22.737  0.00  0.00    +0.000 HD
ENDBRANCH   2  21
BRANCH   5  23
ATOM     23  C12 UNL     1      12.222  48.979  22.863  0.00  0.00    +0.000 C 
BRANCH  23  24
ATOM     24  O2  UNL     1      12.927  49.971  22.170  0.00  0.00    +0.000 OA
ATOM     25  H11 UNL     1      12.974  50.754  22.778  0.00  0.00    +0.000 HD
ENDBRANCH  23  24
ENDBRANCH   5  23
TORSDOF 8
ENDMDL
MODEL 3
REMARK VINA RESULT:      -5.0      1.375      1.761
REMARK  Name = .\Catechins.pdb
REMARK  8 active torsions:
REMARK  status: ('A' for Active; 'I' for Inactive)
REMARK    1  A    between atoms: C3_3  and  O7_19
REMARK    2  A    between atoms: C4_4  and  O6_18
REMARK    3  A    between atoms: C6_6  and  C7_7
REMARK    4  A    between atoms: C8_8  and  O5_17
REMARK    5  A    between atoms: C9_9  and  O4_16
REMARK    6  A    between atoms: C10_10  and  O3_15
REMARK    7  A    between atoms: C11_11  and  C12_13
REMARK    8  A    between atoms: C12_13  and  O2_14
REMARK                            x       y       z     vdW  Elec       q    Type
REMARK                         _______ _______ _______ _____ _____    ______ ____
ROOT
ATOM      1  C7  UNL     1       9.769  48.521  20.972  0.00  0.00    +0.000 C 
ATOM      2  C8  UNL     1       9.647  49.720  21.949  0.00  0.00    +0.000 C 
ATOM      3  C9  UNL     1      11.004  50.020  22.643  0.00  0.00    +0.000 C 
ATOM      4  C10 UNL     1      11.830  48.730  22.789  0.00  0.00    +0.000 C 
ATOM      5  C11 UNL     1      12.028  48.049  21.390  0.00  0.00    +0.000 C 
ATOM      6  O1  UNL     1      11.074  48.479  20.424  0.00  0.00    +0.000 OA
ENDROOT
BRANCH   1  12
ATOM      7  C1  UNL     1       7.753  47.669  19.690  0.00  0.00    +0.000 A 
ATOM      8  C2  UNL     1       6.838  47.767  18.638  0.00  0.00    +0.000 A 
ATOM      9  C3  UNL     1       6.918  48.834  17.732  0.00  0.00    +0.000 A 
ATOM     10  C4  UNL     1       7.922  49.799  17.880  0.00  0.00    +0.000 A 
ATOM     11  C5  UNL     1       8.839  49.700  18.936  0.00  0.00    +0.000 A 
ATOM     12  C6  UNL     1       8.753  48.642  19.858  0.00  0.00    +0.000 A 
BRANCH  10  13
ATOM     13  O6  UNL     1       8.003  50.854  16.971  0.00  0.00    +0.000 OA
ATOM     14  H15 UNL     1       8.876  51.337  16.797  0.00  0.00    +0.000 HD
ENDBRANCH  10  13
BRANCH   9  15
ATOM     15  O7  UNL     1       6.007  48.936  16.683  0.00  0.00    +0.000 OA
ATOM     16  H16 UNL     1       6.264  48.695  15.732  0.00  0.00    +0.000 HD
ENDBRANCH   9  15
ENDBRANCH   1  12
BRANCH   4  17
ATOM     17  O3  UNL     1      13.062  49.010  23.408  0.00  0.00    +0.000 OA
ATOM     18  H12 UNL     1      13.758  48.497  22.920  0.00  0.00    +0.000 HD
ENDBRANCH   4  17
BRANCH   3  19
ATOM     19  O4  UNL     1      10.802  50.609  23.902  0.00  0.00    +0.000 OA
ATOM     20  H13 UNL     1      11.701  50.733  24.304  0.00  0.00    +0.000 HD
ENDBRANCH   3  19
BRANCH   2  21
ATOM     21  O5  UNL     1       8.622  49.487  22.885  0.00  0.00    +0.000 OA
ATOM     22  H14 UNL     1       8.629  48.520  23.106  0.00  0.00    +0.000 HD
ENDBRANCH   2  21
BRANCH   5  23
ATOM     23  C12 UNL     1      13.427  48.298  20.807  0.00  0.00    +0.000 C 
BRANCH  23  24
ATOM     24  O2  UNL     1      13.324  49.053  19.631  0.00  0.00    +0.000 OA
ATOM     25  H11 UNL     1      13.885  49.860  19.771  0.00  0.00    +0.000 HD
ENDBRANCH  23  24
ENDBRANCH   5  23
TORSDOF 8
ENDMDL
MODEL 4
REMARK VINA RESULT:      -4.8      2.142      6.209
REMARK  Name = .\Catechins.pdb
REMARK  8 active torsions:
REMARK  status: ('A' for Active; 'I' for Inactive)
REMARK    1  A    between atoms: C3_3  and  O7_19
REMARK    2  A    between atoms: C4_4  and  O6_18
REMARK    3  A    between atoms: C6_6  and  C7_7
REMARK    4  A    between atoms: C8_8  and  O5_17
REMARK    5  A    between atoms: C9_9  and  O4_16
REMARK    6  A    between atoms: C10_10  and  O3_15
REMARK    7  A    between atoms: C11_11  and  C12_13
REMARK    8  A    between atoms: C12_13  and  O2_14
REMARK                            x       y       z     vdW  Elec       q    Type
REMARK                         _______ _______ _______ _____ _____    ______ ____
ROOT
ATOM      1  C7  UNL     1      10.033  48.809  19.853  0.00  0.00    +0.000 C 
ATOM      2  C8  UNL     1      11.261  48.962  18.917  0.00  0.00    +0.000 C 
ATOM      3  C9  UNL     1      10.845  48.868  17.423  0.00  0.00    +0.000 C 
ATOM      4  C10 UNL     1       9.612  47.962  17.264  0.00  0.00    +0.000 C 
ATOM      5  C11 UNL     1       8.437  48.479  18.166  0.00  0.00    +0.000 C 
ATOM      6  O1  UNL     1       8.879  49.330  19.219  0.00  0.00    +0.000 OA
ENDROOT
BRANCH   1  12
ATOM      7  C1  UNL     1      10.973  48.918  22.206  0.00  0.00    +0.000 A 
ATOM      8  C2  UNL     1      11.159  49.582  23.422  0.00  0.00    +0.000 A 
ATOM      9  C3  UNL     1      10.634  50.867  23.611  0.00  0.00    +0.000 A 
ATOM     10  C4  UNL     1       9.916  51.485  22.579  0.00  0.00    +0.000 A 
ATOM     11  C5  UNL     1       9.730  50.818  21.359  0.00  0.00    +0.000 A 
ATOM     12  C6  UNL     1      10.269  49.536  21.158  0.00  0.00    +0.000 A 
BRANCH  10  13
ATOM     13  O6  UNL     1       9.388  52.760  22.774  0.00  0.00    +0.000 OA
ATOM     14  H15 UNL     1       9.468  53.481  22.067  0.00  0.00    +0.000 HD
ENDBRANCH  10  13
BRANCH   9  15
ATOM     15  O7  UNL     1      10.817  51.533  24.821  0.00  0.00    +0.000 OA
ATOM     16  H16 UNL     1      10.076  52.081  25.243  0.00  0.00    +0.000 HD
ENDBRANCH   9  15
ENDBRANCH   1  12
BRANCH   4  17
ATOM     17  O3  UNL     1       9.232  47.891  15.911  0.00  0.00    +0.000 OA
ATOM     18  H12 UNL     1       8.427  48.460  15.803  0.00  0.00    +0.000 HD
ENDBRANCH   4  17
BRANCH   3  19
ATOM     19  O4  UNL     1      11.904  48.383  16.639  0.00  0.00    +0.000 OA
ATOM     20  H13 UNL     1      11.674  47.448  16.398  0.00  0.00    +0.000 HD
ENDBRANCH   3  19
BRANCH   2  21
ATOM     21  O5  UNL     1      12.248  48.012  19.245  0.00  0.00    +0.000 OA
ATOM     22  H14 UNL     1      13.086  48.505  19.444  0.00  0.00    +0.000 HD
ENDBRANCH   2  21
BRANCH   5  23
ATOM     23  C12 UNL     1       7.371  49.243  17.365  0.00  0.00    +0.000 C 
BRANCH  23  24
ATOM     24  O2  UNL     1       7.866  50.501  16.998  0.00  0.00    +0.000 OA
ATOM     25  H11 UNL     1       8.372  50.839  17.782  0.00  0.00    +0.000 HD
ENDBRANCH  23  24
ENDBRANCH   5  23
TORSDOF 8
ENDMDL
MODEL 5
REMARK VINA RESULT:      -4.7      1.657      6.016
REMARK  Name = .\Catechins.pdb
REMARK  8 active torsions:
REMARK  status: ('A' for Active; 'I' for Inactive)
REMARK    1  A    between atoms: C3_3  and  O7_19
REMARK    2  A    between atoms: C4_4  and  O6_18
REMARK    3  A    between atoms: C6_6  and  C7_7
REMARK    4  A    between atoms: C8_8  and  O5_17
REMARK    5  A    between atoms: C9_9  and  O4_16
REMARK    6  A    between atoms: C10_10  and  O3_15
REMARK    7  A    between atoms: C11_11  and  C12_13
REMARK    8  A    between atoms: C12_13  and  O2_14
REMARK                            x       y       z     vdW  Elec       q    Type
REMARK                         _______ _______ _______ _____ _____    ______ ____
ROOT
ATOM      1  C7  UNL     1       8.678  50.275  20.514  0.00  0.00    +0.000 C 
ATOM      2  C8  UNL     1       8.170  48.812  20.605  0.00  0.00    +0.000 C 
ATOM      3  C9  UNL     1       7.866  48.234  19.195  0.00  0.00    +0.000 C 
ATOM      4  C10 UNL     1       7.428  49.355  18.237  0.00  0.00    +0.000 C 
ATOM      5  C11 UNL     1       8.519  50.481  18.183  0.00  0.00    +0.000 C 
ATOM      6  O1  UNL     1       9.394  50.460  19.307  0.00  0.00    +0.000 OA
ENDROOT
BRANCH   1  12
ATOM      7  C1  UNL     1      10.410  49.612  22.245  0.00  0.00    +0.000 A 
ATOM      8  C2  UNL     1      11.209  49.905  23.354  0.00  0.00    +0.000 A 
ATOM      9  C3  UNL     1      11.175  51.182  23.930  0.00  0.00    +0.000 A 
ATOM     10  C4  UNL     1      10.332  52.164  23.396  0.00  0.00    +0.000 A 
ATOM     11  C5  UNL     1       9.530  51.870  22.284  0.00  0.00    +0.000 A 
ATOM     12  C6  UNL     1       9.573  50.596  21.690  0.00  0.00    +0.000 A 
BRANCH  10  13
ATOM     13  O6  UNL     1      10.294  53.431  23.978  0.00  0.00    +0.000 OA
ATOM     14  H15 UNL     1       9.790  54.197  23.547  0.00  0.00    +0.000 HD
ENDBRANCH  10  13
BRANCH   9  15
ATOM     15  O7  UNL     1      11.971  51.478  25.034  0.00  0.00    +0.000 OA
ATOM     16  H16 UNL     1      11.739  52.235  25.668  0.00  0.00    +0.000 HD
ENDBRANCH   9  15
ENDBRANCH   1  12
BRANCH   4  17
ATOM     17  O3  UNL     1       7.166  48.828  16.959  0.00  0.00    +0.000 OA
ATOM     18  H12 UNL     1       6.889  47.883  17.084  0.00  0.00    +0.000 HD
ENDBRANCH   4  17
BRANCH   3  19
ATOM     19  O4  UNL     1       6.872  47.244  19.264  0.00  0.00    +0.000 OA
ATOM     20  H13 UNL     1       7.327  46.374  19.116  0.00  0.00    +0.000 HD
ENDBRANCH   3  19
BRANCH   2  21
ATOM     21  O5  UNL     1       7.048  48.735  21.453  0.00  0.00    +0.000 OA
ATOM     22  H14 UNL     1       6.501  47.962  21.159  0.00  0.00    +0.000 HD
ENDBRANCH   2  21
BRANCH   5  23
ATOM     23  C12 UNL     1       9.384  50.405  16.916  0.00  0.00    +0.000 C 
BRANCH  23  24
ATOM     24  O2  UNL     1      10.174  49.248  16.951  0.00  0.00    +0.000 OA
ATOM     25  H11 UNL     1      10.463  49.083  16.015  0.00  0.00    +0.000 HD
ENDBRANCH  23  24
ENDBRANCH   5  23
TORSDOF 8
ENDMDL
MODEL 6
REMARK VINA RESULT:      -4.7      1.961      3.009
REMARK  Name = .\Catechins.pdb
REMARK  8 active torsions:
REMARK  status: ('A' for Active; 'I' for Inactive)
REMARK    1  A    between atoms: C3_3  and  O7_19
REMARK    2  A    between atoms: C4_4  and  O6_18
REMARK    3  A    between atoms: C6_6  and  C7_7
REMARK    4  A    between atoms: C8_8  and  O5_17
REMARK    5  A    between atoms: C9_9  and  O4_16
REMARK    6  A    between atoms: C10_10  and  O3_15
REMARK    7  A    between atoms: C11_11  and  C12_13
REMARK    8  A    between atoms: C12_13  and  O2_14
REMARK                            x       y       z     vdW  Elec       q    Type
REMARK                         _______ _______ _______ _____ _____    ______ ____
ROOT
ATOM      1  C7  UNL     1      10.611  51.256  23.390  0.00  0.00    +0.000 C 
ATOM      2  C8  UNL     1      11.189  52.695  23.422  0.00  0.00    +0.000 C 
ATOM      3  C9  UNL     1      12.542  52.741  24.185  0.00  0.00    +0.000 C 
ATOM      4  C10 UNL     1      12.582  51.655  25.274  0.00  0.00    +0.000 C 
ATOM      5  C11 UNL     1      12.314  50.243  24.645  0.00  0.00    +0.000 C 
ATOM      6  O1  UNL     1      11.668  50.314  23.377  0.00  0.00    +0.000 OA
ENDROOT
BRANCH   1  12
ATOM      7  C1  UNL     1       9.978  49.995  21.282  0.00  0.00    +0.000 A 
ATOM      8  C2  UNL     1       9.196  49.841  20.134  0.00  0.00    +0.000 A 
ATOM      9  C3  UNL     1       8.176  50.759  19.847  0.00  0.00    +0.000 A 
ATOM     10  C4  UNL     1       7.946  51.836  20.712  0.00  0.00    +0.000 A 
ATOM     11  C5  UNL     1       8.732  51.990  21.864  0.00  0.00    +0.000 A 
ATOM     12  C6  UNL     1       9.744  51.063  22.165  0.00  0.00    +0.000 A 
BRANCH  10  13
ATOM     13  O6  UNL     1       6.937  52.751  20.419  0.00  0.00    +0.000 OA
ATOM     14  H15 UNL     1       5.969  52.463  20.331  0.00  0.00    +0.000 HD
ENDBRANCH  10  13
BRANCH   9  15
ATOM     15  O7  UNL     1       7.394  50.608  18.705  0.00  0.00    +0.000 OA
ATOM     16  H16 UNL     1       6.874  51.385  18.311  0.00  0.00    +0.000 HD
ENDBRANCH   9  15
ENDBRANCH   1  12
BRANCH   4  17
ATOM     17  O3  UNL     1      13.813  51.693  25.954  0.00  0.00    +0.000 OA
ATOM     18  H12 UNL     1      13.959  50.793  26.347  0.00  0.00    +0.000 HD
ENDBRANCH   4  17
BRANCH   3  19
ATOM     19  O4  UNL     1      12.751  54.006  24.758  0.00  0.00    +0.000 OA
ATOM     20  H13 UNL     1      12.084  54.101  25.487  0.00  0.00    +0.000 HD
ENDBRANCH   3  19
BRANCH   2  21
ATOM     21  O5  UNL     1      10.250  53.588  23.972  0.00  0.00    +0.000 OA
ATOM     22  H14 UNL     1      10.320  53.529  24.959  0.00  0.00    +0.000 HD
ENDBRANCH   2  21
BRANCH   5  23
ATOM     23  C12 UNL     1      13.601  49.423  24.468  0.00  0.00    +0.000 C 
BRANCH  23  24
ATOM     24  O2  UNL     1      13.330  48.064  24.678  0.00  0.00    +0.000 OA
ATOM     25  H11 UNL     1      13.590  47.598  23.841  0.00  0.00    +0.000 HD
ENDBRANCH  23  24
ENDBRANCH   5  23
TORSDOF 8
ENDMDL
MODEL 7
REMARK VINA RESULT:      -4.7      1.321      2.855
REMARK  Name = .\Catechins.pdb
REMARK  8 active torsions:
REMARK  status: ('A' for Active; 'I' for Inactive)
REMARK    1  A    between atoms: C3_3  and  O7_19
REMARK    2  A    between atoms: C4_4  and  O6_18
REMARK    3  A    between atoms: C6_6  and  C7_7
REMARK    4  A    between atoms: C8_8  and  O5_17
REMARK    5  A    between atoms: C9_9  and  O4_16
REMARK    6  A    between atoms: C10_10  and  O3_15
REMARK    7  A    between atoms: C11_11  and  C12_13
REMARK    8  A    between atoms: C12_13  and  O2_14
REMARK                            x       y       z     vdW  Elec       q    Type
REMARK                         _______ _______ _______ _____ _____    ______ ____
ROOT
ATOM      1  C7  UNL     1      10.334  49.402  21.032  0.00  0.00    +0.000 C 
ATOM      2  C8  UNL     1      10.560  48.036  21.731  0.00  0.00    +0.000 C 
ATOM      3  C9  UNL     1      11.186  48.221  23.141  0.00  0.00    +0.000 C 
ATOM      4  C10 UNL     1      12.060  49.486  23.178  0.00  0.00    +0.000 C 
ATOM      5  C11 UNL     1      11.225  50.739  22.741  0.00  0.00    +0.000 C 
ATOM      6  O1  UNL     1      10.057  50.397  22.001  0.00  0.00    +0.000 OA
ENDROOT
BRANCH   1  12
ATOM      7  C1  UNL     1       8.185  48.334  20.210  0.00  0.00    +0.000 A 
ATOM      8  C2  UNL     1       7.144  48.232  19.283  0.00  0.00    +0.000 A 
ATOM      9  C3  UNL     1       7.092  49.098  18.182  0.00  0.00    +0.000 A 
ATOM     10  C4  UNL     1       8.091  50.064  18.009  0.00  0.00    +0.000 A 
ATOM     11  C5  UNL     1       9.136  50.165  18.939  0.00  0.00    +0.000 A 
ATOM     12  C6  UNL     1       9.184  49.312  20.054  0.00  0.00    +0.000 A 
BRANCH  10  13
ATOM     13  O6  UNL     1       8.041  50.918  16.908  0.00  0.00    +0.000 OA
ATOM     14  H15 UNL     1       7.674  50.610  16.015  0.00  0.00    +0.000 HD
ENDBRANCH  10  13
BRANCH   9  15
ATOM     15  O7  UNL     1       6.055  49.001  17.258  0.00  0.00    +0.000 OA
ATOM     16  H16 UNL     1       5.934  49.687  16.521  0.00  0.00    +0.000 HD
ENDBRANCH   9  15
ENDBRANCH   1  12
BRANCH   4  17
ATOM     17  O3  UNL     1      12.615  49.655  24.460  0.00  0.00    +0.000 OA
ATOM     18  H12 UNL     1      13.288  50.382  24.394  0.00  0.00    +0.000 HD
ENDBRANCH   4  17
BRANCH   3  19
ATOM     19  O4  UNL     1      11.946  47.098  23.502  0.00  0.00    +0.000 OA
ATOM     20  H13 UNL     1      12.299  47.275  24.413  0.00  0.00    +0.000 HD
ENDBRANCH   3  19
BRANCH   2  21
ATOM     21  O5  UNL     1      11.343  47.194  20.919  0.00  0.00    +0.000 OA
ATOM     22  H14 UNL     1      11.042  47.313  19.982  0.00  0.00    +0.000 HD
ENDBRANCH   2  21
BRANCH   5  23
ATOM     23  C12 UNL     1      10.786  51.601  23.935  0.00  0.00    +0.000 C 
BRANCH  23  24
ATOM     24  O2  UNL     1       9.935  52.623  23.494  0.00  0.00    +0.000 OA
ATOM     25  H11 UNL     1      10.231  52.852  22.575  0.00  0.00    +0.000 HD
ENDBRANCH  23  24
ENDBRANCH   5  23
TORSDOF 8
ENDMDL
MODEL 8
REMARK VINA RESULT:      -4.6      1.036      1.085
REMARK  Name = .\Catechins.pdb
REMARK  8 active torsions:
REMARK  status: ('A' for Active; 'I' for Inactive)
REMARK    1  A    between atoms: C3_3  and  O7_19
REMARK    2  A    between atoms: C4_4  and  O6_18
REMARK    3  A    between atoms: C6_6  and  C7_7
REMARK    4  A    between atoms: C8_8  and  O5_17
REMARK    5  A    between atoms: C9_9  and  O4_16
REMARK    6  A    between atoms: C10_10  and  O3_15
REMARK    7  A    between atoms: C11_11  and  C12_13
REMARK    8  A    between atoms: C12_13  and  O2_14
REMARK                            x       y       z     vdW  Elec       q    Type
REMARK                         _______ _______ _______ _____ _____    ______ ____
ROOT
ATOM      1  C7  UNL     1       8.591  49.155  21.175  0.00  0.00    +0.000 C 
ATOM      2  C8  UNL     1       8.969  50.657  21.267  0.00  0.00    +0.000 C 
ATOM      3  C9  UNL     1      10.250  50.863  22.121  0.00  0.00    +0.000 C 
ATOM      4  C10 UNL     1      10.363  49.768  23.195  0.00  0.00    +0.000 C 
ATOM      5  C11 UNL     1      10.327  48.347  22.530  0.00  0.00    +0.000 C 
ATOM      6  O1  UNL     1       9.763  48.361  21.222  0.00  0.00    +0.000 OA
ENDROOT
BRANCH   1  12
ATOM      7  C1  UNL     1       6.910  47.825  19.819  0.00  0.00    +0.000 A 
ATOM      8  C2  UNL     1       6.244  47.551  18.622  0.00  0.00    +0.000 A 
ATOM      9  C3  UNL     1       6.507  48.316  17.477  0.00  0.00    +0.000 A 
ATOM     10  C4  UNL     1       7.444  49.355  17.535  0.00  0.00    +0.000 A 
ATOM     11  C5  UNL     1       8.112  49.630  18.737  0.00  0.00    +0.000 A 
ATOM     12  C6  UNL     1       7.840  48.877  19.892  0.00  0.00    +0.000 A 
BRANCH  10  13
ATOM     13  O6  UNL     1       7.709  50.108  16.392  0.00  0.00    +0.000 OA
ATOM     14  H15 UNL     1       8.232  50.975  16.438  0.00  0.00    +0.000 HD
ENDBRANCH  10  13
BRANCH   9  15
ATOM     15  O7  UNL     1       5.844  48.047  16.282  0.00  0.00    +0.000 OA
ATOM     16  H16 UNL     1       5.696  48.766  15.583  0.00  0.00    +0.000 HD
ENDBRANCH   9  15
ENDBRANCH   1  12
BRANCH   4  17
ATOM     17  O3  UNL     1      11.531  49.953  23.957  0.00  0.00    +0.000 OA
ATOM     18  H12 UNL     1      12.165  49.233  23.701  0.00  0.00    +0.000 HD
ENDBRANCH   4  17
BRANCH   3  19
ATOM     19  O4  UNL     1      10.251  52.131  22.724  0.00  0.00    +0.000 OA
ATOM     20  H13 UNL     1       9.655  52.070  23.515  0.00  0.00    +0.000 HD
ENDBRANCH   3  19
BRANCH   2  21
ATOM     21  O5  UNL     1       7.885  51.406  21.763  0.00  0.00    +0.000 OA
ATOM     22  H14 UNL     1       7.116  51.263  21.154  0.00  0.00    +0.000 HD
ENDBRANCH   2  21
BRANCH   5  23
ATOM     23  C12 UNL     1      11.721  47.708  22.430  0.00  0.00    +0.000 C 
BRANCH  23  24
ATOM     24  O2  UNL     1      12.221  47.862  21.130  0.00  0.00    +0.000 OA
ATOM     25  H11 UNL     1      13.192  48.043  21.228  0.00  0.00    +0.000 HD
ENDBRANCH  23  24
ENDBRANCH   5  23
TORSDOF 8
ENDMDL
MODEL 9
REMARK VINA RESULT:      -4.3      1.225      1.852
REMARK  Name = .\Catechins.pdb
REMARK  8 active torsions:
REMARK  status: ('A' for Active; 'I' for Inactive)
REMARK    1  A    between atoms: C3_3  and  O7_19
REMARK    2  A    between atoms: C4_4  and  O6_18
REMARK    3  A    between atoms: C6_6  and  C7_7
REMARK    4  A    between atoms: C8_8  and  O5_17
REMARK    5  A    between atoms: C9_9  and  O4_16
REMARK    6  A    between atoms: C10_10  and  O3_15
REMARK    7  A    between atoms: C11_11  and  C12_13
REMARK    8  A    between atoms: C12_13  and  O2_14
REMARK                            x       y       z     vdW  Elec       q    Type
REMARK                         _______ _______ _______ _____ _____    ______ ____
ROOT
ATOM      1  C7  UNL     1       8.716  50.134  20.890  0.00  0.00    +0.000 C 
ATOM      2  C8  UNL     1       9.101  51.625  21.078  0.00  0.00    +0.000 C 
ATOM      3  C9  UNL     1      10.054  51.811  22.291  0.00  0.00    +0.000 C 
ATOM      4  C10 UNL     1       9.781  50.738  23.358  0.00  0.00    +0.000 C 
ATOM      5  C11 UNL     1       9.906  49.305  22.734  0.00  0.00    +0.000 C 
ATOM      6  O1  UNL     1       9.783  49.306  21.315  0.00  0.00    +0.000 OA
ENDROOT
BRANCH   1  12
ATOM      7  C1  UNL     1       8.779  50.753  18.431  0.00  0.00    +0.000 A 
ATOM      8  C2  UNL     1       8.453  50.502  17.095  0.00  0.00    +0.000 A 
ATOM      9  C3  UNL     1       7.731  49.351  16.750  0.00  0.00    +0.000 A 
ATOM     10  C4  UNL     1       7.332  48.454  17.748  0.00  0.00    +0.000 A 
ATOM     11  C5  UNL     1       7.660  48.706  19.088  0.00  0.00    +0.000 A 
ATOM     12  C6  UNL     1       8.398  49.849  19.439  0.00  0.00    +0.000 A 
BRANCH  10  13
ATOM     13  O6  UNL     1       6.607  47.315  17.401  0.00  0.00    +0.000 OA
ATOM     14  H15 UNL     1       6.609  46.487  17.985  0.00  0.00    +0.000 HD
ENDBRANCH  10  13
BRANCH   9  15
ATOM     15  O7  UNL     1       7.405  49.097  15.420  0.00  0.00    +0.000 OA
ATOM     16  H16 UNL     1       7.980  48.500  14.836  0.00  0.00    +0.000 HD
ENDBRANCH   9  15
ENDBRANCH   1  12
BRANCH   4  17
ATOM     17  O3  UNL     1      10.655  50.905  24.449  0.00  0.00    +0.000 OA
ATOM     18  H12 UNL     1      10.821  51.879  24.545  0.00  0.00    +0.000 HD
ENDBRANCH   4  17
BRANCH   3  19
ATOM     19  O4  UNL     1       9.910  53.093  22.847  0.00  0.00    +0.000 OA
ATOM     20  H13 UNL     1       8.998  53.404  22.613  0.00  0.00    +0.000 HD
ENDBRANCH   3  19
BRANCH   2  21
ATOM     21  O5  UNL     1       7.944  52.418  21.197  0.00  0.00    +0.000 OA
ATOM     22  H14 UNL     1       7.876  52.977  20.380  0.00  0.00    +0.000 HD
ENDBRANCH   2  21
BRANCH   5  23
ATOM     23  C12 UNL     1      11.235  48.621  23.087  0.00  0.00    +0.000 C 
BRANCH  23  24
ATOM     24  O2  UNL     1      11.228  47.300  22.618  0.00  0.00    +0.000 OA
ATOM     25  H11 UNL     1      10.969  46.734  23.391  0.00  0.00    +0.000 HD
ENDBRANCH  23  24
ENDBRANCH   5  23
TORSDOF 8
ENDMDL
