MODEL 1
REMARK VINA RESULT:      -5.0      0.000      0.000
REMARK  Name = .\Catechins.pdb
REMARK  8 active torsions:
REMARK  status: ('A' for Active; 'I' for Inactive)
REMARK    1  A    between atoms: C3_3  and  O7_19
REMARK    2  A    between atoms: C4_4  and  O6_18
REMARK    3  A    between atoms: C6_6  and  C7_7
REMARK    4  A    between atoms: C8_8  and  O5_17
REMARK    5  A    between atoms: C9_9  and  O4_16
REMARK    6  A    between atoms: C10_10  and  O3_15
REMARK    7  A    between atoms: C11_11  and  C12_13
REMARK    8  A    between atoms: C12_13  and  O2_14
REMARK                            x       y       z     vdW  Elec       q    Type
REMARK                         _______ _______ _______ _____ _____    ______ ____
ROOT
ATOM      1  C7  UNL     1      -0.415  93.555 114.675  0.00  0.00    +0.000 C 
ATOM      2  C8  UNL     1      -1.941  93.503 114.401  0.00  0.00    +0.000 C 
ATOM      3  C9  UNL     1      -2.300  92.337 113.439  0.00  0.00    +0.000 C 
ATOM      4  C10 UNL     1      -1.132  92.052 112.480  0.00  0.00    +0.000 C 
ATOM      5  C11 UNL     1       0.179  91.758 113.290  0.00  0.00    +0.000 C 
ATOM      6  O1  UNL     1       0.126  92.248 114.626  0.00  0.00    +0.000 OA
ENDROOT
BRANCH   1  12
ATOM      7  C1  UNL     1       1.130  94.675 116.346  0.00  0.00    +0.000 A 
ATOM      8  C2  UNL     1       1.386  95.209 117.613  0.00  0.00    +0.000 A 
ATOM      9  C3  UNL     1       0.377  95.231 118.585  0.00  0.00    +0.000 A 
ATOM     10  C4  UNL     1      -0.889  94.712 118.287  0.00  0.00    +0.000 A 
ATOM     11  C5  UNL     1      -1.145  94.177 117.016  0.00  0.00    +0.000 A 
ATOM     12  C6  UNL     1      -0.143  94.168 116.031  0.00  0.00    +0.000 A 
BRANCH  10  13
ATOM     13  O6  UNL     1      -1.887  94.728 119.260  0.00  0.00    +0.000 OA
ATOM     14  H15 UNL     1      -2.019  93.952 119.898  0.00  0.00    +0.000 HD
ENDBRANCH  10  13
BRANCH   9  15
ATOM     15  O7  UNL     1       0.627  95.763 119.848  0.00  0.00    +0.000 OA
ATOM     16  H16 UNL     1      -0.126  96.049 120.463  0.00  0.00    +0.000 HD
ENDBRANCH   9  15
ENDBRANCH   1  12
BRANCH   4  17
ATOM     17  O3  UNL     1      -1.459  90.987 111.619  0.00  0.00    +0.000 OA
ATOM     18  H12 UNL     1      -1.252  90.146 112.104  0.00  0.00    +0.000 HD
ENDBRANCH   4  17
BRANCH   3  19
ATOM     19  O4  UNL     1      -3.463  92.630 112.710  0.00  0.00    +0.000 OA
ATOM     20  H13 UNL     1      -3.273  93.455 112.192  0.00  0.00    +0.000 HD
ENDBRANCH   3  19
BRANCH   2  21
ATOM     21  O5  UNL     1      -2.393  94.743 113.909  0.00  0.00    +0.000 OA
ATOM     22  H14 UNL     1      -3.369  94.666 113.749  0.00  0.00    +0.000 HD
ENDBRANCH   2  21
BRANCH   5  23
ATOM     23  C12 UNL     1       0.508  90.259 113.354  0.00  0.00    +0.000 C 
BRANCH  23  24
ATOM     24  O2  UNL     1       1.160  89.866 112.178  0.00  0.00    +0.000 OA
ATOM     25  H11 UNL     1       0.666  89.074 111.840  0.00  0.00    +0.000 HD
ENDBRANCH  23  24
ENDBRANCH   5  23
TORSDOF 8
ENDMDL
MODEL 2
REMARK VINA RESULT:      -5.0      2.509      3.742
REMARK  Name = .\Catechins.pdb
REMARK  8 active torsions:
REMARK  status: ('A' for Active; 'I' for Inactive)
REMARK    1  A    between atoms: C3_3  and  O7_19
REMARK    2  A    between atoms: C4_4  and  O6_18
REMARK    3  A    between atoms: C6_6  and  C7_7
REMARK    4  A    between atoms: C8_8  and  O5_17
REMARK    5  A    between atoms: C9_9  and  O4_16
REMARK    6  A    between atoms: C10_10  and  O3_15
REMARK    7  A    between atoms: C11_11  and  C12_13
REMARK    8  A    between atoms: C12_13  and  O2_14
REMARK                            x       y       z     vdW  Elec       q    Type
REMARK                         _______ _______ _______ _____ _____    ______ ____
ROOT
ATOM      1  C7  UNL     1      -0.370  92.292 113.537  0.00  0.00    +0.000 C 
ATOM      2  C8  UNL     1       0.163  93.328 112.513  0.00  0.00    +0.000 C 
ATOM      3  C9  UNL     1       0.667  92.633 111.219  0.00  0.00    +0.000 C 
ATOM      4  C10 UNL     1       1.196  91.224 111.537  0.00  0.00    +0.000 C 
ATOM      5  C11 UNL     1       0.091  90.378 112.261  0.00  0.00    +0.000 C 
ATOM      6  O1  UNL     1      -0.924  91.183 112.853  0.00  0.00    +0.000 OA
ENDROOT
BRANCH   1  12
ATOM      7  C1  UNL     1      -1.083  93.414 115.697  0.00  0.00    +0.000 A 
ATOM      8  C2  UNL     1      -2.065  93.961 116.528  0.00  0.00    +0.000 A 
ATOM      9  C3  UNL     1      -3.400  94.011 116.104  0.00  0.00    +0.000 A 
ATOM     10  C4  UNL     1      -3.750  93.504 114.846  0.00  0.00    +0.000 A 
ATOM     11  C5  UNL     1      -2.764  92.955 114.013  0.00  0.00    +0.000 A 
ATOM     12  C6  UNL     1      -1.421  92.919 114.425  0.00  0.00    +0.000 A 
BRANCH  10  13
ATOM     13  O6  UNL     1      -5.080  93.548 114.431  0.00  0.00    +0.000 OA
ATOM     14  H15 UNL     1      -5.356  93.251 113.502  0.00  0.00    +0.000 HD
ENDBRANCH  10  13
BRANCH   9  15
ATOM     15  O7  UNL     1      -4.381  94.556 116.928  0.00  0.00    +0.000 OA
ATOM     16  H16 UNL     1      -5.253  94.071 117.109  0.00  0.00    +0.000 HD
ENDBRANCH   9  15
ENDBRANCH   1  12
BRANCH   4  17
ATOM     17  O3  UNL     1       1.639  90.594 110.359  0.00  0.00    +0.000 OA
ATOM     18  H12 UNL     1       1.054  89.806 110.210  0.00  0.00    +0.000 HD
ENDBRANCH   4  17
BRANCH   3  19
ATOM     19  O4  UNL     1       1.670  93.395 110.599  0.00  0.00    +0.000 OA
ATOM     20  H13 UNL     1       1.364  94.339 110.623  0.00  0.00    +0.000 HD
ENDBRANCH   3  19
BRANCH   2  21
ATOM     21  O5  UNL     1       1.164  94.127 113.100  0.00  0.00    +0.000 OA
ATOM     22  H14 UNL     1       2.042  93.785 112.790  0.00  0.00    +0.000 HD
ENDBRANCH   2  21
BRANCH   5  23
ATOM     23  C12 UNL     1      -0.596  89.376 111.321  0.00  0.00    +0.000 C 
BRANCH  23  24
ATOM     24  O2  UNL     1      -1.327  90.066 110.345  0.00  0.00    +0.000 OA
ATOM     25  H11 UNL     1      -0.951  89.788 109.470  0.00  0.00    +0.000 HD
ENDBRANCH  23  24
ENDBRANCH   5  23
TORSDOF 8
ENDMDL
MODEL 3
REMARK VINA RESULT:      -5.0      1.910      6.000
REMARK  Name = .\Catechins.pdb
REMARK  8 active torsions:
REMARK  status: ('A' for Active; 'I' for Inactive)
REMARK    1  A    between atoms: C3_3  and  O7_19
REMARK    2  A    between atoms: C4_4  and  O6_18
REMARK    3  A    between atoms: C6_6  and  C7_7
REMARK    4  A    between atoms: C8_8  and  O5_17
REMARK    5  A    between atoms: C9_9  and  O4_16
REMARK    6  A    between atoms: C10_10  and  O3_15
REMARK    7  A    between atoms: C11_11  and  C12_13
REMARK    8  A    between atoms: C12_13  and  O2_14
REMARK                            x       y       z     vdW  Elec       q    Type
REMARK                         _______ _______ _______ _____ _____    ______ ____
ROOT
ATOM      1  C7  UNL     1      -1.193  92.974 114.816  0.00  0.00    +0.000 C 
ATOM      2  C8  UNL     1      -1.826  94.374 114.600  0.00  0.00    +0.000 C 
ATOM      3  C9  UNL     1      -1.687  95.257 115.871  0.00  0.00    +0.000 C 
ATOM      4  C10 UNL     1      -1.680  94.381 117.135  0.00  0.00    +0.000 C 
ATOM      5  C11 UNL     1      -0.542  93.304 117.046  0.00  0.00    +0.000 C 
ATOM      6  O1  UNL     1      -0.100  93.074 115.711  0.00  0.00    +0.000 OA
ENDROOT
BRANCH   1  12
ATOM      7  C1  UNL     1      -1.039  91.077 113.139  0.00  0.00    +0.000 A 
ATOM      8  C2  UNL     1      -0.572  90.539 111.937  0.00  0.00    +0.000 A 
ATOM      9  C3  UNL     1       0.230  91.310 111.084  0.00  0.00    +0.000 A 
ATOM     10  C4  UNL     1       0.567  92.621 111.443  0.00  0.00    +0.000 A 
ATOM     11  C5  UNL     1       0.097  93.161 112.649  0.00  0.00    +0.000 A 
ATOM     12  C6  UNL     1      -0.721  92.399 113.500  0.00  0.00    +0.000 A 
BRANCH  10  13
ATOM     13  O6  UNL     1       1.372  93.382 110.595  0.00  0.00    +0.000 OA
ATOM     14  H15 UNL     1       2.039  94.053 110.959  0.00  0.00    +0.000 HD
ENDBRANCH  10  13
BRANCH   9  15
ATOM     15  O7  UNL     1       0.698  90.778 109.885  0.00  0.00    +0.000 OA
ATOM     16  H16 UNL     1       0.625  89.788 109.679  0.00  0.00    +0.000 HD
ENDBRANCH   9  15
ENDBRANCH   1  12
BRANCH   4  17
ATOM     17  O3  UNL     1      -1.542  95.184 118.282  0.00  0.00    +0.000 OA
ATOM     18  H12 UNL     1      -0.792  95.812 118.112  0.00  0.00    +0.000 HD
ENDBRANCH   4  17
BRANCH   3  19
ATOM     19  O4  UNL     1      -2.727  96.198 115.942  0.00  0.00    +0.000 OA
ATOM     20  H13 UNL     1      -3.538  95.753 115.584  0.00  0.00    +0.000 HD
ENDBRANCH   3  19
BRANCH   2  21
ATOM     21  O5  UNL     1      -3.169  94.248 114.197  0.00  0.00    +0.000 OA
ATOM     22  H14 UNL     1      -3.542  93.441 114.638  0.00  0.00    +0.000 HD
ENDBRANCH   2  21
BRANCH   5  23
ATOM     23  C12 UNL     1       0.688  93.674 117.888  0.00  0.00    +0.000 C 
BRANCH  23  24
ATOM     24  O2  UNL     1       1.144  92.546 118.583  0.00  0.00    +0.000 OA
ATOM     25  H11 UNL     1       1.087  92.775 119.547  0.00  0.00    +0.000 HD
ENDBRANCH  23  24
ENDBRANCH   5  23
TORSDOF 8
ENDMDL
MODEL 4
REMARK VINA RESULT:      -4.9      2.195      5.890
REMARK  Name = .\Catechins.pdb
REMARK  8 active torsions:
REMARK  status: ('A' for Active; 'I' for Inactive)
REMARK    1  A    between atoms: C3_3  and  O7_19
REMARK    2  A    between atoms: C4_4  and  O6_18
REMARK    3  A    between atoms: C6_6  and  C7_7
REMARK    4  A    between atoms: C8_8  and  O5_17
REMARK    5  A    between atoms: C9_9  and  O4_16
REMARK    6  A    between atoms: C10_10  and  O3_15
REMARK    7  A    between atoms: C11_11  and  C12_13
REMARK    8  A    between atoms: C12_13  and  O2_14
REMARK                            x       y       z     vdW  Elec       q    Type
REMARK                         _______ _______ _______ _____ _____    ______ ____
ROOT
ATOM      1  C7  UNL     1      -1.849  94.120 115.033  0.00  0.00    +0.000 C 
ATOM      2  C8  UNL     1      -1.450  95.612 115.188  0.00  0.00    +0.000 C 
ATOM      3  C9  UNL     1      -1.655  96.100 116.648  0.00  0.00    +0.000 C 
ATOM      4  C10 UNL     1      -2.808  95.330 117.315  0.00  0.00    +0.000 C 
ATOM      5  C11 UNL     1      -2.542  93.786 117.249  0.00  0.00    +0.000 C 
ATOM      6  O1  UNL     1      -1.599  93.428 116.243  0.00  0.00    +0.000 OA
ENDROOT
BRANCH   1  12
ATOM      7  C1  UNL     1       0.296  93.774 113.723  0.00  0.00    +0.000 A 
ATOM      8  C2  UNL     1       1.005  93.205 112.662  0.00  0.00    +0.000 A 
ATOM      9  C3  UNL     1       0.361  92.341 111.766  0.00  0.00    +0.000 A 
ATOM     10  C4  UNL     1      -1.000  92.054 111.932  0.00  0.00    +0.000 A 
ATOM     11  C5  UNL     1      -1.711  92.626 112.997  0.00  0.00    +0.000 A 
ATOM     12  C6  UNL     1      -1.066  93.478 113.909  0.00  0.00    +0.000 A 
BRANCH  10  13
ATOM     13  O6  UNL     1      -1.639  91.202 111.033  0.00  0.00    +0.000 OA
ATOM     14  H15 UNL     1      -2.040  91.547 110.169  0.00  0.00    +0.000 HD
ENDBRANCH  10  13
BRANCH   9  15
ATOM     15  O7  UNL     1       1.065  91.771 110.707  0.00  0.00    +0.000 OA
ATOM     16  H16 UNL     1       1.469  92.339 109.971  0.00  0.00    +0.000 HD
ENDBRANCH   9  15
ENDBRANCH   1  12
BRANCH   4  17
ATOM     17  O3  UNL     1      -2.982  95.768 118.641  0.00  0.00    +0.000 OA
ATOM     18  H12 UNL     1      -3.945  95.671 118.858  0.00  0.00    +0.000 HD
ENDBRANCH   4  17
BRANCH   3  19
ATOM     19  O4  UNL     1      -1.913  97.480 116.683  0.00  0.00    +0.000 OA
ATOM     20  H13 UNL     1      -1.067  97.920 116.955  0.00  0.00    +0.000 HD
ENDBRANCH   3  19
BRANCH   2  21
ATOM     21  O5  UNL     1      -2.159  96.407 114.267  0.00  0.00    +0.000 OA
ATOM     22  H14 UNL     1      -3.036  95.972 114.106  0.00  0.00    +0.000 HD
ENDBRANCH   2  21
BRANCH   5  23
ATOM     23  C12 UNL     1      -2.039  93.216 118.584  0.00  0.00    +0.000 C 
BRANCH  23  24
ATOM     24  O2  UNL     1      -0.817  92.559 118.389  0.00  0.00    +0.000 OA
ATOM     25  H11 UNL     1      -1.017  91.764 117.830  0.00  0.00    +0.000 HD
ENDBRANCH  23  24
ENDBRANCH   5  23
TORSDOF 8
ENDMDL
MODEL 5
REMARK VINA RESULT:      -4.8      1.822      6.253
REMARK  Name = .\Catechins.pdb
REMARK  8 active torsions:
REMARK  status: ('A' for Active; 'I' for Inactive)
REMARK    1  A    between atoms: C3_3  and  O7_19
REMARK    2  A    between atoms: C4_4  and  O6_18
REMARK    3  A    between atoms: C6_6  and  C7_7
REMARK    4  A    between atoms: C8_8  and  O5_17
REMARK    5  A    between atoms: C9_9  and  O4_16
REMARK    6  A    between atoms: C10_10  and  O3_15
REMARK    7  A    between atoms: C11_11  and  C12_13
REMARK    8  A    between atoms: C12_13  and  O2_14
REMARK                            x       y       z     vdW  Elec       q    Type
REMARK                         _______ _______ _______ _____ _____    ______ ____
ROOT
ATOM      1  C7  UNL     1      -0.974  93.685 114.812  0.00  0.00    +0.000 C 
ATOM      2  C8  UNL     1      -0.080  93.270 116.010  0.00  0.00    +0.000 C 
ATOM      3  C9  UNL     1      -0.776  93.580 117.365  0.00  0.00    +0.000 C 
ATOM      4  C10 UNL     1      -1.707  94.796 117.225  0.00  0.00    +0.000 C 
ATOM      5  C11 UNL     1      -2.748  94.556 116.076  0.00  0.00    +0.000 C 
ATOM      6  O1  UNL     1      -2.339  93.545 115.160  0.00  0.00    +0.000 OA
ENDROOT
BRANCH   1  12
ATOM      7  C1  UNL     1      -0.002  93.373 112.490  0.00  0.00    +0.000 A 
ATOM      8  C2  UNL     1       0.249  92.587 111.362  0.00  0.00    +0.000 A 
ATOM      9  C3  UNL     1      -0.172  91.251 111.325  0.00  0.00    +0.000 A 
ATOM     10  C4  UNL     1      -0.852  90.705 112.422  0.00  0.00    +0.000 A 
ATOM     11  C5  UNL     1      -1.102  91.494 113.554  0.00  0.00    +0.000 A 
ATOM     12  C6  UNL     1      -0.667  92.829 113.603  0.00  0.00    +0.000 A 
BRANCH  10  13
ATOM     13  O6  UNL     1      -1.276  89.378 112.378  0.00  0.00    +0.000 OA
ATOM     14  H15 UNL     1      -0.736  88.664 111.903  0.00  0.00    +0.000 HD
ENDBRANCH  10  13
BRANCH   9  15
ATOM     15  O7  UNL     1       0.076  90.464 110.203  0.00  0.00    +0.000 OA
ATOM     16  H16 UNL     1      -0.116  89.469 110.199  0.00  0.00    +0.000 HD
ENDBRANCH   9  15
ENDBRANCH   1  12
BRANCH   4  17
ATOM     17  O3  UNL     1      -2.343  95.065 118.451  0.00  0.00    +0.000 OA
ATOM     18  H12 UNL     1      -2.238  94.257 119.019  0.00  0.00    +0.000 HD
ENDBRANCH   4  17
BRANCH   3  19
ATOM     19  O4  UNL     1       0.173  93.813 118.373  0.00  0.00    +0.000 OA
ATOM     20  H13 UNL     1       0.899  94.350 117.961  0.00  0.00    +0.000 HD
ENDBRANCH   3  19
BRANCH   2  21
ATOM     21  O5  UNL     1       1.181  93.889 115.918  0.00  0.00    +0.000 OA
ATOM     22  H14 UNL     1       1.506  94.050 116.842  0.00  0.00    +0.000 HD
ENDBRANCH   2  21
BRANCH   5  23
ATOM     23  C12 UNL     1      -4.136  94.171 116.609  0.00  0.00    +0.000 C 
BRANCH  23  24
ATOM     24  O2  UNL     1      -5.077  94.236 115.572  0.00  0.00    +0.000 OA
ATOM     25  H11 UNL     1      -5.408  95.172 115.559  0.00  0.00    +0.000 HD
ENDBRANCH  23  24
ENDBRANCH   5  23
TORSDOF 8
ENDMDL
MODEL 6
REMARK VINA RESULT:      -4.4      2.049      2.115
REMARK  Name = .\Catechins.pdb
REMARK  8 active torsions:
REMARK  status: ('A' for Active; 'I' for Inactive)
REMARK    1  A    between atoms: C3_3  and  O7_19
REMARK    2  A    between atoms: C4_4  and  O6_18
REMARK    3  A    between atoms: C6_6  and  C7_7
REMARK    4  A    between atoms: C8_8  and  O5_17
REMARK    5  A    between atoms: C9_9  and  O4_16
REMARK    6  A    between atoms: C10_10  and  O3_15
REMARK    7  A    between atoms: C11_11  and  C12_13
REMARK    8  A    between atoms: C12_13  and  O2_14
REMARK                            x       y       z     vdW  Elec       q    Type
REMARK                         _______ _______ _______ _____ _____    ______ ____
ROOT
ATOM      1  C7  UNL     1      -1.453  94.389 114.447  0.00  0.00    +0.000 C 
ATOM      2  C8  UNL     1      -2.420  93.261 114.002  0.00  0.00    +0.000 C 
ATOM      3  C9  UNL     1      -1.757  92.337 112.943  0.00  0.00    +0.000 C 
ATOM      4  C10 UNL     1      -0.735  93.125 112.106  0.00  0.00    +0.000 C 
ATOM      5  C11 UNL     1       0.329  93.800 113.040  0.00  0.00    +0.000 C 
ATOM      6  O1  UNL     1      -0.116  93.926 114.387  0.00  0.00    +0.000 OA
ENDROOT
BRANCH   1  12
ATOM      7  C1  UNL     1      -1.798  96.200 116.190  0.00  0.00    +0.000 A 
ATOM      8  C2  UNL     1      -2.062  96.604 117.501  0.00  0.00    +0.000 A 
ATOM      9  C3  UNL     1      -2.293  95.649 118.501  0.00  0.00    +0.000 A 
ATOM     10  C4  UNL     1      -2.253  94.286 118.183  0.00  0.00    +0.000 A 
ATOM     11  C5  UNL     1      -1.989  93.881 116.867  0.00  0.00    +0.000 A 
ATOM     12  C6  UNL     1      -1.774  94.834 115.857  0.00  0.00    +0.000 A 
BRANCH  10  13
ATOM     13  O6  UNL     1      -2.475  93.339 119.182  0.00  0.00    +0.000 OA
ATOM     14  H15 UNL     1      -2.421  92.345 118.991  0.00  0.00    +0.000 HD
ENDBRANCH  10  13
BRANCH   9  15
ATOM     15  O7  UNL     1      -2.557  96.048 119.809  0.00  0.00    +0.000 OA
ATOM     16  H16 UNL     1      -3.406  95.771 120.287  0.00  0.00    +0.000 HD
ENDBRANCH   9  15
ENDBRANCH   1  12
BRANCH   4  17
ATOM     17  O3  UNL     1      -0.129  92.281 111.158  0.00  0.00    +0.000 OA
ATOM     18  H12 UNL     1      -0.530  92.496 110.275  0.00  0.00    +0.000 HD
ENDBRANCH   4  17
BRANCH   3  19
ATOM     19  O4  UNL     1      -2.725  91.761 112.105  0.00  0.00    +0.000 OA
ATOM     20  H13 UNL     1      -2.340  91.752 111.191  0.00  0.00    +0.000 HD
ENDBRANCH   3  19
BRANCH   2  21
ATOM     21  O5  UNL     1      -3.629  93.809 113.531  0.00  0.00    +0.000 OA
ATOM     22  H14 UNL     1      -3.906  93.287 112.735  0.00  0.00    +0.000 HD
ENDBRANCH   2  21
BRANCH   5  23
ATOM     23  C12 UNL     1       1.664  93.040 113.059  0.00  0.00    +0.000 C 
BRANCH  23  24
ATOM     24  O2  UNL     1       1.486  91.783 113.650  0.00  0.00    +0.000 OA
ATOM     25  H11 UNL     1       0.606  91.815 114.108  0.00  0.00    +0.000 HD
ENDBRANCH  23  24
ENDBRANCH   5  23
TORSDOF 8
ENDMDL
MODEL 7
REMARK VINA RESULT:      -4.3      1.800      2.805
REMARK  Name = .\Catechins.pdb
REMARK  8 active torsions:
REMARK  status: ('A' for Active; 'I' for Inactive)
REMARK    1  A    between atoms: C3_3  and  O7_19
REMARK    2  A    between atoms: C4_4  and  O6_18
REMARK    3  A    between atoms: C6_6  and  C7_7
REMARK    4  A    between atoms: C8_8  and  O5_17
REMARK    5  A    between atoms: C9_9  and  O4_16
REMARK    6  A    between atoms: C10_10  and  O3_15
REMARK    7  A    between atoms: C11_11  and  C12_13
REMARK    8  A    between atoms: C12_13  and  O2_14
REMARK                            x       y       z     vdW  Elec       q    Type
REMARK                         _______ _______ _______ _____ _____    ______ ____
ROOT
ATOM      1  C7  UNL     1       0.354  92.588 114.411  0.00  0.00    +0.000 C 
ATOM      2  C8  UNL     1       0.450  93.521 113.175  0.00  0.00    +0.000 C 
ATOM      3  C9  UNL     1       0.652  92.705 111.869  0.00  0.00    +0.000 C 
ATOM      4  C10 UNL     1       1.414  91.401 112.161  0.00  0.00    +0.000 C 
ATOM      5  C11 UNL     1       0.667  90.568 113.260  0.00  0.00    +0.000 C 
ATOM      6  O1  UNL     1      -0.232  91.355 114.037  0.00  0.00    +0.000 OA
ENDROOT
BRANCH   1  12
ATOM      7  C1  UNL     1      -1.846  93.477 115.307  0.00  0.00    +0.000 A 
ATOM      8  C2  UNL     1      -2.600  94.107 116.301  0.00  0.00    +0.000 A 
ATOM      9  C3  UNL     1      -1.990  94.515 117.495  0.00  0.00    +0.000 A 
ATOM     10  C4  UNL     1      -0.620  94.296 117.688  0.00  0.00    +0.000 A 
ATOM     11  C5  UNL     1       0.135  93.664 116.690  0.00  0.00    +0.000 A 
ATOM     12  C6  UNL     1      -0.474  93.236 115.498  0.00  0.00    +0.000 A 
BRANCH  10  13
ATOM     13  O6  UNL     1      -0.017  94.712 118.874  0.00  0.00    +0.000 OA
ATOM     14  H15 UNL     1      -0.446  94.541 119.776  0.00  0.00    +0.000 HD
ENDBRANCH  10  13
BRANCH   9  15
ATOM     15  O7  UNL     1      -2.738  95.143 118.489  0.00  0.00    +0.000 OA
ATOM     16  H16 UNL     1      -3.351  94.618 119.103  0.00  0.00    +0.000 HD
ENDBRANCH   9  15
ENDBRANCH   1  12
BRANCH   4  17
ATOM     17  O3  UNL     1       1.583  90.661 110.977  0.00  0.00    +0.000 OA
ATOM     18  H12 UNL     1       2.066  89.828 111.219  0.00  0.00    +0.000 HD
ENDBRANCH   4  17
BRANCH   3  19
ATOM     19  O4  UNL     1       1.341  93.461 110.907  0.00  0.00    +0.000 OA
ATOM     20  H13 UNL     1       2.307  93.270 111.034  0.00  0.00    +0.000 HD
ENDBRANCH   3  19
BRANCH   2  21
ATOM     21  O5  UNL     1       1.471  94.473 113.358  0.00  0.00    +0.000 OA
ATOM     22  H14 UNL     1       1.619  94.928 112.489  0.00  0.00    +0.000 HD
ENDBRANCH   2  21
BRANCH   5  23
ATOM     23  C12 UNL     1      -0.130  89.395 112.671  0.00  0.00    +0.000 C 
BRANCH  23  24
ATOM     24  O2  UNL     1      -1.481  89.748 112.559  0.00  0.00    +0.000 OA
ATOM     25  H11 UNL     1      -1.950  88.940 112.222  0.00  0.00    +0.000 HD
ENDBRANCH  23  24
ENDBRANCH   5  23
TORSDOF 8
ENDMDL
MODEL 8
REMARK VINA RESULT:      -4.3      1.886      2.506
REMARK  Name = .\Catechins.pdb
REMARK  8 active torsions:
REMARK  status: ('A' for Active; 'I' for Inactive)
REMARK    1  A    between atoms: C3_3  and  O7_19
REMARK    2  A    between atoms: C4_4  and  O6_18
REMARK    3  A    between atoms: C6_6  and  C7_7
REMARK    4  A    between atoms: C8_8  and  O5_17
REMARK    5  A    between atoms: C9_9  and  O4_16
REMARK    6  A    between atoms: C10_10  and  O3_15
REMARK    7  A    between atoms: C11_11  and  C12_13
REMARK    8  A    between atoms: C12_13  and  O2_14
REMARK                            x       y       z     vdW  Elec       q    Type
REMARK                         _______ _______ _______ _____ _____    ______ ____
ROOT
ATOM      1  C7  UNL     1      -1.478  93.590 113.724  0.00  0.00    +0.000 C 
ATOM      2  C8  UNL     1      -1.782  92.085 113.952  0.00  0.00    +0.000 C 
ATOM      3  C9  UNL     1      -0.987  91.194 112.958  0.00  0.00    +0.000 C 
ATOM      4  C10 UNL     1      -0.745  91.945 111.638  0.00  0.00    +0.000 C 
ATOM      5  C11 UNL     1      -0.016  93.307 111.911  0.00  0.00    +0.000 C 
ATOM      6  O1  UNL     1      -0.150  93.746 113.260  0.00  0.00    +0.000 OA
ENDROOT
BRANCH   1  12
ATOM      7  C1  UNL     1      -1.925  95.748 114.980  0.00  0.00    +0.000 A 
ATOM      8  C2  UNL     1      -2.060  96.467 116.170  0.00  0.00    +0.000 A 
ATOM      9  C3  UNL     1      -1.924  95.819 117.406  0.00  0.00    +0.000 A 
ATOM     10  C4  UNL     1      -1.646  94.447 117.445  0.00  0.00    +0.000 A 
ATOM     11  C5  UNL     1      -1.510  93.725 116.250  0.00  0.00    +0.000 A 
ATOM     12  C6  UNL     1      -1.663  94.366 115.008  0.00  0.00    +0.000 A 
BRANCH  10  13
ATOM     13  O6  UNL     1      -1.503  93.807 118.675  0.00  0.00    +0.000 OA
ATOM     14  H15 UNL     1      -1.665  92.812 118.777  0.00  0.00    +0.000 HD
ENDBRANCH  10  13
BRANCH   9  15
ATOM     15  O7  UNL     1      -2.060  96.532 118.594  0.00  0.00    +0.000 OA
ATOM     16  H16 UNL     1      -2.737  97.279 118.691  0.00  0.00    +0.000 HD
ENDBRANCH   9  15
ENDBRANCH   1  12
BRANCH   4  17
ATOM     17  O3  UNL     1      -0.015  91.138 110.746  0.00  0.00    +0.000 OA
ATOM     18  H12 UNL     1      -0.642  90.847 110.034  0.00  0.00    +0.000 HD
ENDBRANCH   4  17
BRANCH   3  19
ATOM     19  O4  UNL     1      -1.667  89.991 112.711  0.00  0.00    +0.000 OA
ATOM     20  H13 UNL     1      -2.137  89.753 113.552  0.00  0.00    +0.000 HD
ENDBRANCH   3  19
BRANCH   2  21
ATOM     21  O5  UNL     1      -3.167  91.847 113.873  0.00  0.00    +0.000 OA
ATOM     22  H14 UNL     1      -3.324  90.898 114.113  0.00  0.00    +0.000 HD
ENDBRANCH   2  21
BRANCH   5  23
ATOM     23  C12 UNL     1       1.484  93.249 111.585  0.00  0.00    +0.000 C 
BRANCH  23  24
ATOM     24  O2  UNL     1       1.670  93.307 110.198  0.00  0.00    +0.000 OA
ATOM     25  H11 UNL     1       1.198  94.123 109.889  0.00  0.00    +0.000 HD
ENDBRANCH  23  24
ENDBRANCH   5  23
TORSDOF 8
ENDMDL
MODEL 9
REMARK VINA RESULT:      -3.9      1.680      6.370
REMARK  Name = .\Catechins.pdb
REMARK  8 active torsions:
REMARK  status: ('A' for Active; 'I' for Inactive)
REMARK    1  A    between atoms: C3_3  and  O7_19
REMARK    2  A    between atoms: C4_4  and  O6_18
REMARK    3  A    between atoms: C6_6  and  C7_7
REMARK    4  A    between atoms: C8_8  and  O5_17
REMARK    5  A    between atoms: C9_9  and  O4_16
REMARK    6  A    between atoms: C10_10  and  O3_15
REMARK    7  A    between atoms: C11_11  and  C12_13
REMARK    8  A    between atoms: C12_13  and  O2_14
REMARK                            x       y       z     vdW  Elec       q    Type
REMARK                         _______ _______ _______ _____ _____    ______ ____
ROOT
ATOM      1  C7  UNL     1       0.429  94.418 115.342  0.00  0.00    +0.000 C 
ATOM      2  C8  UNL     1       0.469  93.561 116.634  0.00  0.00    +0.000 C 
ATOM      3  C9  UNL     1       0.261  94.439 117.899  0.00  0.00    +0.000 C 
ATOM      4  C10 UNL     1       0.800  95.860 117.661  0.00  0.00    +0.000 C 
ATOM      5  C11 UNL     1       0.125  96.493 116.393  0.00  0.00    +0.000 C 
ATOM      6  O1  UNL     1      -0.443  95.519 115.523  0.00  0.00    +0.000 OA
ENDROOT
BRANCH   1  12
ATOM      7  C1  UNL     1       0.871  93.130 113.202  0.00  0.00    +0.000 A 
ATOM      8  C2  UNL     1       0.427  92.390 112.103  0.00  0.00    +0.000 A 
ATOM      9  C3  UNL     1      -0.937  92.105 111.950  0.00  0.00    +0.000 A 
ATOM     10  C4  UNL     1      -1.856  92.569 112.899  0.00  0.00    +0.000 A 
ATOM     11  C5  UNL     1      -1.409  93.311 114.002  0.00  0.00    +0.000 A 
ATOM     12  C6  UNL     1      -0.041  93.585 114.170  0.00  0.00    +0.000 A 
BRANCH  10  13
ATOM     13  O6  UNL     1      -3.213  92.290 112.738  0.00  0.00    +0.000 OA
ATOM     14  H15 UNL     1      -3.829  92.926 112.246  0.00  0.00    +0.000 HD
ENDBRANCH  10  13
BRANCH   9  15
ATOM     15  O7  UNL     1      -1.384  91.367 110.856  0.00  0.00    +0.000 OA
ATOM     16  H16 UNL     1      -0.777  90.716 110.371  0.00  0.00    +0.000 HD
ENDBRANCH   9  15
ENDBRANCH   1  12
BRANCH   4  17
ATOM     17  O3  UNL     1       0.598  96.654 118.805  0.00  0.00    +0.000 OA
ATOM     18  H12 UNL     1       0.312  97.552 118.491  0.00  0.00    +0.000 HD
ENDBRANCH   4  17
BRANCH   3  19
ATOM     19  O4  UNL     1       0.891  93.866 119.015  0.00  0.00    +0.000 OA
ATOM     20  H13 UNL     1       0.307  94.050 119.796  0.00  0.00    +0.000 HD
ENDBRANCH   3  19
BRANCH   2  21
ATOM     21  O5  UNL     1       1.670  92.829 116.699  0.00  0.00    +0.000 OA
ATOM     22  H14 UNL     1       1.437  91.865 116.679  0.00  0.00    +0.000 HD
ENDBRANCH   2  21
BRANCH   5  23
ATOM     23  C12 UNL     1      -0.978  97.499 116.753  0.00  0.00    +0.000 C 
BRANCH  23  24
ATOM     24  O2  UNL     1      -2.027  96.839 117.407  0.00  0.00    +0.000 OA
ATOM     25  H11 UNL     1      -2.365  97.471 118.094  0.00  0.00    +0.000 HD
ENDBRANCH  23  24
ENDBRANCH   5  23
TORSDOF 8
ENDMDL
