MODEL 1
REMARK VINA RESULT:      46.2      0.000      0.000
REMARK  Name = .\Catechins.pdb
REMARK  8 active torsions:
REMARK  status: ('A' for Active; 'I' for Inactive)
REMARK    1  A    between atoms: C3_3  and  O7_19
REMARK    2  A    between atoms: C4_4  and  O6_18
REMARK    3  A    between atoms: C6_6  and  C7_7
REMARK    4  A    between atoms: C8_8  and  O5_17
REMARK    5  A    between atoms: C9_9  and  O4_16
REMARK    6  A    between atoms: C10_10  and  O3_15
REMARK    7  A    between atoms: C11_11  and  C12_13
REMARK    8  A    between atoms: C12_13  and  O2_14
REMARK                            x       y       z     vdW  Elec       q    Type
REMARK                         _______ _______ _______ _____ _____    ______ ____
ROOT
ATOM      1  C7  UNL     1      -4.542  78.822  90.877  0.00  0.00    +0.000 C 
ATOM      2  C8  UNL     1      -3.831  77.485  91.214  0.00  0.00    +0.000 C 
ATOM      3  C9  UNL     1      -4.845  76.419  91.713  0.00  0.00    +0.000 C 
ATOM      4  C10 UNL     1      -6.028  77.095  92.427  0.00  0.00    +0.000 C 
ATOM      5  C11 UNL     1      -6.706  78.147  91.481  0.00  0.00    +0.000 C 
ATOM      6  O1  UNL     1      -5.856  78.564  90.416  0.00  0.00    +0.000 OA
ENDROOT
BRANCH   1  12
ATOM      7  C1  UNL     1      -2.365  79.577  89.816  0.00  0.00    +0.000 A 
ATOM      8  C2  UNL     1      -1.658  80.305  88.855  0.00  0.00    +0.000 A 
ATOM      9  C3  UNL     1      -2.345  81.053  87.889  0.00  0.00    +0.000 A 
ATOM     10  C4  UNL     1      -3.746  81.074  87.893  0.00  0.00    +0.000 A 
ATOM     11  C5  UNL     1      -4.455  80.343  88.857  0.00  0.00    +0.000 A 
ATOM     12  C6  UNL     1      -3.771  79.578  89.817  0.00  0.00    +0.000 A 
BRANCH  10  13
ATOM     13  O6  UNL     1      -4.426  81.826  86.936  0.00  0.00    +0.000 OA
ATOM     14  H15 UNL     1      -5.381  81.610  86.673  0.00  0.00    +0.000 HD
ENDBRANCH  10  13
BRANCH   9  15
ATOM     15  O7  UNL     1      -1.644  81.779  86.930  0.00  0.00    +0.000 OA
ATOM     16  H16 UNL     1      -2.074  82.546  86.425  0.00  0.00    +0.000 HD
ENDBRANCH   9  15
ENDBRANCH   1  12
BRANCH   4  17
ATOM     17  O3  UNL     1      -6.949  76.126  92.866  0.00  0.00    +0.000 OA
ATOM     18  H12 UNL     1      -6.922  76.125  93.858  0.00  0.00    +0.000 HD
ENDBRANCH   4  17
BRANCH   3  19
ATOM     19  O4  UNL     1      -4.222  75.502  92.575  0.00  0.00    +0.000 OA
ATOM     20  H13 UNL     1      -3.893  76.021  93.353  0.00  0.00    +0.000 HD
ENDBRANCH   3  19
BRANCH   2  21
ATOM     21  O5  UNL     1      -2.799  77.701  92.147  0.00  0.00    +0.000 OA
ATOM     22  H14 UNL     1      -2.936  78.599  92.546  0.00  0.00    +0.000 HD
ENDBRANCH   2  21
BRANCH   5  23
ATOM     23  C12 UNL     1      -8.011  77.627  90.860  0.00  0.00    +0.000 C 
BRANCH  23  24
ATOM     24  O2  UNL     1      -8.005  77.860  89.478  0.00  0.00    +0.000 OA
ATOM     25  H11 UNL     1      -7.364  77.208  89.091  0.00  0.00    +0.000 HD
ENDBRANCH  23  24
ENDBRANCH   5  23
TORSDOF 8
ENDMDL
