MODEL 1
REMARK VINA RESULT:      -2.0      0.000      0.000
REMARK  Name = .\Catechins.pdb
REMARK  8 active torsions:
REMARK  status: ('A' for Active; 'I' for Inactive)
REMARK    1  A    between atoms: C3_3  and  O7_19
REMARK    2  A    between atoms: C4_4  and  O6_18
REMARK    3  A    between atoms: C6_6  and  C7_7
REMARK    4  A    between atoms: C8_8  and  O5_17
REMARK    5  A    between atoms: C9_9  and  O4_16
REMARK    6  A    between atoms: C10_10  and  O3_15
REMARK    7  A    between atoms: C11_11  and  C12_13
REMARK    8  A    between atoms: C12_13  and  O2_14
REMARK                            x       y       z     vdW  Elec       q    Type
REMARK                         _______ _______ _______ _____ _____    ______ ____
ROOT
ATOM      1  C7  UNL     1     -18.783  71.470 126.105  0.00  0.00    +0.000 C 
ATOM      2  C8  UNL     1     -18.344  70.277 126.994  0.00  0.00    +0.000 C 
ATOM      3  C9  UNL     1     -19.208  69.018 126.713  0.00  0.00    +0.000 C 
ATOM      4  C10 UNL     1     -20.623  69.425 126.266  0.00  0.00    +0.000 C 
ATOM      5  C11 UNL     1     -20.548  70.372 125.018  0.00  0.00    +0.000 C 
ATOM      6  O1  UNL     1     -19.274  70.990 124.866  0.00  0.00    +0.000 OA
ENDROOT
BRANCH   1  12
ATOM      7  C1  UNL     1     -16.575  72.041 124.994  0.00  0.00    +0.000 A 
ATOM      8  C2  UNL     1     -15.485  72.894 124.801  0.00  0.00    +0.000 A 
ATOM      9  C3  UNL     1     -15.417  74.117 125.481  0.00  0.00    +0.000 A 
ATOM     10  C4  UNL     1     -16.443  74.481 126.363  0.00  0.00    +0.000 A 
ATOM     11  C5  UNL     1     -17.537  73.625 126.556  0.00  0.00    +0.000 A 
ATOM     12  C6  UNL     1     -17.619  72.405 125.863  0.00  0.00    +0.000 A 
BRANCH  10  13
ATOM     13  O6  UNL     1     -16.367  75.695 127.044  0.00  0.00    +0.000 OA
ATOM     14  H15 UNL     1     -17.081  75.976 127.706  0.00  0.00    +0.000 HD
ENDBRANCH  10  13
BRANCH   9  15
ATOM     15  O7  UNL     1     -14.333  74.970 125.291  0.00  0.00    +0.000 OA
ATOM     16  H16 UNL     1     -14.439  75.978 125.315  0.00  0.00    +0.000 HD
ENDBRANCH   9  15
ENDBRANCH   1  12
BRANCH   4  17
ATOM     17  O3  UNL     1     -21.397  68.280 126.001  0.00  0.00    +0.000 OA
ATOM     18  H12 UNL     1     -22.214  68.583 125.525  0.00  0.00    +0.000 HD
ENDBRANCH   4  17
BRANCH   3  19
ATOM     19  O4  UNL     1     -19.279  68.195 127.848  0.00  0.00    +0.000 OA
ATOM     20  H13 UNL     1     -19.012  68.756 128.622  0.00  0.00    +0.000 HD
ENDBRANCH   3  19
BRANCH   2  21
ATOM     21  O5  UNL     1     -18.379  70.641 128.354  0.00  0.00    +0.000 OA
ATOM     22  H14 UNL     1     -19.226  71.131 128.513  0.00  0.00    +0.000 HD
ENDBRANCH   2  21
BRANCH   5  23
ATOM     23  C12 UNL     1     -20.873  69.645 123.705  0.00  0.00    +0.000 C 
BRANCH  23  24
ATOM     24  O2  UNL     1     -19.862  68.720 123.412  0.00  0.00    +0.000 OA
ATOM     25  H11 UNL     1     -20.269  67.821 123.525  0.00  0.00    +0.000 HD
ENDBRANCH  23  24
ENDBRANCH   5  23
TORSDOF 8
ENDMDL
MODEL 2
REMARK VINA RESULT:      -0.0      1.489      2.344
REMARK  Name = .\Catechins.pdb
REMARK  8 active torsions:
REMARK  status: ('A' for Active; 'I' for Inactive)
REMARK    1  A    between atoms: C3_3  and  O7_19
REMARK    2  A    between atoms: C4_4  and  O6_18
REMARK    3  A    between atoms: C6_6  and  C7_7
REMARK    4  A    between atoms: C8_8  and  O5_17
REMARK    5  A    between atoms: C9_9  and  O4_16
REMARK    6  A    between atoms: C10_10  and  O3_15
REMARK    7  A    between atoms: C11_11  and  C12_13
REMARK    8  A    between atoms: C12_13  and  O2_14
REMARK                            x       y       z     vdW  Elec       q    Type
REMARK                         _______ _______ _______ _____ _____    ______ ____
ROOT
ATOM      1  C7  UNL     1     -17.728  70.860 125.531  0.00  0.00    +0.000 C 
ATOM      2  C8  UNL     1     -17.641  70.161 124.149  0.00  0.00    +0.000 C 
ATOM      3  C9  UNL     1     -18.947  69.384 123.828  0.00  0.00    +0.000 C 
ATOM      4  C10 UNL     1     -19.611  68.889 125.125  0.00  0.00    +0.000 C 
ATOM      5  C11 UNL     1     -19.872  70.093 126.096  0.00  0.00    +0.000 C 
ATOM      6  O1  UNL     1     -19.069  71.231 125.798  0.00  0.00    +0.000 OA
ENDROOT
BRANCH   1  12
ATOM      7  C1  UNL     1     -15.582  72.077 124.942  0.00  0.00    +0.000 A 
ATOM      8  C2  UNL     1     -14.757  73.203 125.000  0.00  0.00    +0.000 A 
ATOM      9  C3  UNL     1     -15.177  74.352 125.684  0.00  0.00    +0.000 A 
ATOM     10  C4  UNL     1     -16.426  74.367 126.317  0.00  0.00    +0.000 A 
ATOM     11  C5  UNL     1     -17.254  73.236 126.259  0.00  0.00    +0.000 A 
ATOM     12  C6  UNL     1     -16.846  72.088 125.558  0.00  0.00    +0.000 A 
BRANCH  10  13
ATOM     13  O6  UNL     1     -16.837  75.508 127.004  0.00  0.00    +0.000 OA
ATOM     14  H15 UNL     1     -17.420  76.210 126.565  0.00  0.00    +0.000 HD
ENDBRANCH  10  13
BRANCH   9  15
ATOM     15  O7  UNL     1     -14.358  75.477 125.744  0.00  0.00    +0.000 OA
ATOM     16  H16 UNL     1     -14.117  75.912 126.627  0.00  0.00    +0.000 HD
ENDBRANCH   9  15
ENDBRANCH   1  12
BRANCH   4  17
ATOM     17  O3  UNL     1     -20.800  68.197 124.829  0.00  0.00    +0.000 OA
ATOM     18  H12 UNL     1     -20.568  67.234 124.760  0.00  0.00    +0.000 HD
ENDBRANCH   4  17
BRANCH   3  19
ATOM     19  O4  UNL     1     -18.687  68.299 122.975  0.00  0.00    +0.000 OA
ATOM     20  H13 UNL     1     -18.877  68.611 122.053  0.00  0.00    +0.000 HD
ENDBRANCH   3  19
BRANCH   2  21
ATOM     21  O5  UNL     1     -16.509  69.324 124.094  0.00  0.00    +0.000 OA
ATOM     22  H14 UNL     1     -16.764  68.505 123.596  0.00  0.00    +0.000 HD
ENDBRANCH   2  21
BRANCH   5  23
ATOM     23  C12 UNL     1     -21.340  70.545 126.095  0.00  0.00    +0.000 C 
BRANCH  23  24
ATOM     24  O2  UNL     1     -21.407  71.939 126.213  0.00  0.00    +0.000 OA
ATOM     25  H11 UNL     1     -20.475  72.269 126.127  0.00  0.00    +0.000 HD
ENDBRANCH  23  24
ENDBRANCH   5  23
TORSDOF 8
ENDMDL
