MODEL 1
REMARK VINA RESULT:      -5.0      0.000      0.000
REMARK  Name = .\Catechins.pdb
REMARK  8 active torsions:
REMARK  status: ('A' for Active; 'I' for Inactive)
REMARK    1  A    between atoms: C3_3  and  O7_19
REMARK    2  A    between atoms: C4_4  and  O6_18
REMARK    3  A    between atoms: C6_6  and  C7_7
REMARK    4  A    between atoms: C8_8  and  O5_17
REMARK    5  A    between atoms: C9_9  and  O4_16
REMARK    6  A    between atoms: C10_10  and  O3_15
REMARK    7  A    between atoms: C11_11  and  C12_13
REMARK    8  A    between atoms: C12_13  and  O2_14
REMARK                            x       y       z     vdW  Elec       q    Type
REMARK                         _______ _______ _______ _____ _____    ______ ____
ROOT
ATOM      1  C7  UNL     1       3.026  58.569  60.588  0.00  0.00    +0.000 C 
ATOM      2  C8  UNL     1       3.345  57.200  59.931  0.00  0.00    +0.000 C 
ATOM      3  C9  UNL     1       2.044  56.459  59.515  0.00  0.00    +0.000 C 
ATOM      4  C10 UNL     1       0.886  56.838  60.453  0.00  0.00    +0.000 C 
ATOM      5  C11 UNL     1       0.689  58.394  60.476  0.00  0.00    +0.000 C 
ATOM      6  O1  UNL     1       1.840  59.105  60.029  0.00  0.00    +0.000 OA
ENDROOT
BRANCH   1  12
ATOM      7  C1  UNL     1       4.504  59.979  59.085  0.00  0.00    +0.000 A 
ATOM      8  C2  UNL     1       5.584  60.845  58.892  0.00  0.00    +0.000 A 
ATOM      9  C3  UNL     1       6.352  61.270  59.985  0.00  0.00    +0.000 A 
ATOM     10  C4  UNL     1       6.038  60.819  61.273  0.00  0.00    +0.000 A 
ATOM     11  C5  UNL     1       4.954  59.950  61.466  0.00  0.00    +0.000 A 
ATOM     12  C6  UNL     1       4.170  59.535  60.377  0.00  0.00    +0.000 A 
BRANCH  10  13
ATOM     13  O6  UNL     1       6.810  61.237  62.356  0.00  0.00    +0.000 OA
ATOM     14  H15 UNL     1       6.537  62.029  62.927  0.00  0.00    +0.000 HD
ENDBRANCH  10  13
BRANCH   9  15
ATOM     15  O7  UNL     1       7.428  62.134  59.796  0.00  0.00    +0.000 OA
ATOM     16  H16 UNL     1       8.012  62.083  58.969  0.00  0.00    +0.000 HD
ENDBRANCH   9  15
ENDBRANCH   1  12
BRANCH   4  17
ATOM     17  O3  UNL     1      -0.292  56.174  60.064  0.00  0.00    +0.000 OA
ATOM     18  H12 UNL     1      -0.549  56.530  59.174  0.00  0.00    +0.000 HD
ENDBRANCH   4  17
BRANCH   3  19
ATOM     19  O4  UNL     1       2.236  55.068  59.522  0.00  0.00    +0.000 OA
ATOM     20  H13 UNL     1       2.547  54.830  60.434  0.00  0.00    +0.000 HD
ENDBRANCH   3  19
BRANCH   2  21
ATOM     21  O5  UNL     1       4.139  56.417  60.791  0.00  0.00    +0.000 OA
ATOM     22  H14 UNL     1       5.050  56.371  60.401  0.00  0.00    +0.000 HD
ENDBRANCH   2  21
BRANCH   5  23
ATOM     23  C12 UNL     1      -0.502  58.851  59.620  0.00  0.00    +0.000 C 
BRANCH  23  24
ATOM     24  O2  UNL     1      -0.099  59.876  58.754  0.00  0.00    +0.000 OA
ATOM     25  H11 UNL     1       0.151  59.434  57.901  0.00  0.00    +0.000 HD
ENDBRANCH  23  24
ENDBRANCH   5  23
TORSDOF 8
ENDMDL
MODEL 2
REMARK VINA RESULT:      -4.7      1.473      1.496
REMARK  Name = .\Catechins.pdb
REMARK  8 active torsions:
REMARK  status: ('A' for Active; 'I' for Inactive)
REMARK    1  A    between atoms: C3_3  and  O7_19
REMARK    2  A    between atoms: C4_4  and  O6_18
REMARK    3  A    between atoms: C6_6  and  C7_7
REMARK    4  A    between atoms: C8_8  and  O5_17
REMARK    5  A    between atoms: C9_9  and  O4_16
REMARK    6  A    between atoms: C10_10  and  O3_15
REMARK    7  A    between atoms: C11_11  and  C12_13
REMARK    8  A    between atoms: C12_13  and  O2_14
REMARK                            x       y       z     vdW  Elec       q    Type
REMARK                         _______ _______ _______ _____ _____    ______ ____
ROOT
ATOM      1  C7  UNL     1       3.457  58.579  59.560  0.00  0.00    +0.000 C 
ATOM      2  C8  UNL     1       3.505  58.062  58.098  0.00  0.00    +0.000 C 
ATOM      3  C9  UNL     1       2.090  57.669  57.594  0.00  0.00    +0.000 C 
ATOM      4  C10 UNL     1       1.216  57.186  58.765  0.00  0.00    +0.000 C 
ATOM      5  C11 UNL     1       1.153  58.283  59.885  0.00  0.00    +0.000 C 
ATOM      6  O1  UNL     1       2.220  59.224  59.800  0.00  0.00    +0.000 OA
ENDROOT
BRANCH   1  12
ATOM      7  C1  UNL     1       4.911  60.543  58.876  0.00  0.00    +0.000 A 
ATOM      8  C2  UNL     1       5.982  61.411  59.101  0.00  0.00    +0.000 A 
ATOM      9  C3  UNL     1       6.757  61.289  60.262  0.00  0.00    +0.000 A 
ATOM     10  C4  UNL     1       6.459  60.288  61.196  0.00  0.00    +0.000 A 
ATOM     11  C5  UNL     1       5.384  59.417  60.969  0.00  0.00    +0.000 A 
ATOM     12  C6  UNL     1       4.592  59.546  59.815  0.00  0.00    +0.000 A 
BRANCH  10  13
ATOM     13  O6  UNL     1       7.238  60.165  62.345  0.00  0.00    +0.000 OA
ATOM     14  H15 UNL     1       8.244  60.052  62.294  0.00  0.00    +0.000 HD
ENDBRANCH  10  13
BRANCH   9  15
ATOM     15  O7  UNL     1       7.825  62.153  60.490  0.00  0.00    +0.000 OA
ATOM     16  H16 UNL     1       8.548  61.937  61.167  0.00  0.00    +0.000 HD
ENDBRANCH   9  15
ENDBRANCH   1  12
BRANCH   4  17
ATOM     17  O3  UNL     1      -0.068  56.843  58.304  0.00  0.00    +0.000 OA
ATOM     18  H12 UNL     1      -0.128  55.852  58.317  0.00  0.00    +0.000 HD
ENDBRANCH   4  17
BRANCH   3  19
ATOM     19  O4  UNL     1       2.168  56.671  56.608  0.00  0.00    +0.000 OA
ATOM     20  H13 UNL     1       1.301  56.679  56.126  0.00  0.00    +0.000 HD
ENDBRANCH   3  19
BRANCH   2  21
ATOM     21  O5  UNL     1       4.415  56.993  57.986  0.00  0.00    +0.000 OA
ATOM     22  H14 UNL     1       5.314  57.378  57.822  0.00  0.00    +0.000 HD
ENDBRANCH   2  21
BRANCH   5  23
ATOM     23  C12 UNL     1      -0.166  59.070  59.865  0.00  0.00    +0.000 C 
BRANCH  23  24
ATOM     24  O2  UNL     1      -0.159  59.982  58.801  0.00  0.00    +0.000 OA
ATOM     25  H11 UNL     1      -0.028  60.878  59.207  0.00  0.00    +0.000 HD
ENDBRANCH  23  24
ENDBRANCH   5  23
TORSDOF 8
ENDMDL
MODEL 3
REMARK VINA RESULT:      -4.6      2.362      7.036
REMARK  Name = .\Catechins.pdb
REMARK  8 active torsions:
REMARK  status: ('A' for Active; 'I' for Inactive)
REMARK    1  A    between atoms: C3_3  and  O7_19
REMARK    2  A    between atoms: C4_4  and  O6_18
REMARK    3  A    between atoms: C6_6  and  C7_7
REMARK    4  A    between atoms: C8_8  and  O5_17
REMARK    5  A    between atoms: C9_9  and  O4_16
REMARK    6  A    between atoms: C10_10  and  O3_15
REMARK    7  A    between atoms: C11_11  and  C12_13
REMARK    8  A    between atoms: C12_13  and  O2_14
REMARK                            x       y       z     vdW  Elec       q    Type
REMARK                         _______ _______ _______ _____ _____    ______ ____
ROOT
ATOM      1  C7  UNL     1       1.016  57.487  60.090  0.00  0.00    +0.000 C 
ATOM      2  C8  UNL     1       1.485  58.385  58.916  0.00  0.00    +0.000 C 
ATOM      3  C9  UNL     1       3.030  58.554  58.920  0.00  0.00    +0.000 C 
ATOM      4  C10 UNL     1       3.576  58.471  60.355  0.00  0.00    +0.000 C 
ATOM      5  C11 UNL     1       3.135  57.125  61.029  0.00  0.00    +0.000 C 
ATOM      6  O1  UNL     1       2.012  56.526  60.388  0.00  0.00    +0.000 OA
ENDROOT
BRANCH   1  12
ATOM      7  C1  UNL     1      -1.426  57.525  59.405  0.00  0.00    +0.000 A 
ATOM      8  C2  UNL     1      -2.627  56.873  59.112  0.00  0.00    +0.000 A 
ATOM      9  C3  UNL     1      -2.699  55.474  59.155  0.00  0.00    +0.000 A 
ATOM     10  C4  UNL     1      -1.564  54.729  59.500  0.00  0.00    +0.000 A 
ATOM     11  C5  UNL     1      -0.359  55.385  59.794  0.00  0.00    +0.000 A 
ATOM     12  C6  UNL     1      -0.277  56.786  59.735  0.00  0.00    +0.000 A 
BRANCH  10  13
ATOM     13  O6  UNL     1      -1.641  53.339  59.549  0.00  0.00    +0.000 OA
ATOM     14  H15 UNL     1      -2.171  52.812  58.865  0.00  0.00    +0.000 HD
ENDBRANCH  10  13
BRANCH   9  15
ATOM     15  O7  UNL     1      -3.893  54.820  58.862  0.00  0.00    +0.000 OA
ATOM     16  H16 UNL     1      -4.324  54.886  57.947  0.00  0.00    +0.000 HD
ENDBRANCH   9  15
ENDBRANCH   1  12
BRANCH   4  17
ATOM     17  O3  UNL     1       4.976  58.613  60.352  0.00  0.00    +0.000 OA
ATOM     18  H12 UNL     1       5.268  58.614  59.403  0.00  0.00    +0.000 HD
ENDBRANCH   4  17
BRANCH   3  19
ATOM     19  O4  UNL     1       3.401  59.774  58.332  0.00  0.00    +0.000 OA
ATOM     20  H13 UNL     1       2.559  60.242  58.094  0.00  0.00    +0.000 HD
ENDBRANCH   3  19
BRANCH   2  21
ATOM     21  O5  UNL     1       0.824  59.628  58.954  0.00  0.00    +0.000 OA
ATOM     22  H14 UNL     1      -0.059  59.513  58.518  0.00  0.00    +0.000 HD
ENDBRANCH   2  21
BRANCH   5  23
ATOM     23  C12 UNL     1       4.264  56.084  61.061  0.00  0.00    +0.000 C 
BRANCH  23  24
ATOM     24  O2  UNL     1       4.532  55.634  59.762  0.00  0.00    +0.000 OA
ATOM     25  H11 UNL     1       3.939  54.852  59.613  0.00  0.00    +0.000 HD
ENDBRANCH  23  24
ENDBRANCH   5  23
TORSDOF 8
ENDMDL
MODEL 4
REMARK VINA RESULT:      -4.6      1.906      6.158
REMARK  Name = .\Catechins.pdb
REMARK  8 active torsions:
REMARK  status: ('A' for Active; 'I' for Inactive)
REMARK    1  A    between atoms: C3_3  and  O7_19
REMARK    2  A    between atoms: C4_4  and  O6_18
REMARK    3  A    between atoms: C6_6  and  C7_7
REMARK    4  A    between atoms: C8_8  and  O5_17
REMARK    5  A    between atoms: C9_9  and  O4_16
REMARK    6  A    between atoms: C10_10  and  O3_15
REMARK    7  A    between atoms: C11_11  and  C12_13
REMARK    8  A    between atoms: C12_13  and  O2_14
REMARK                            x       y       z     vdW  Elec       q    Type
REMARK                         _______ _______ _______ _____ _____    ______ ____
ROOT
ATOM      1  C7  UNL     1       4.413  59.157  59.078  0.00  0.00    +0.000 C 
ATOM      2  C8  UNL     1       4.302  59.396  60.607  0.00  0.00    +0.000 C 
ATOM      3  C9  UNL     1       5.182  60.596  61.054  0.00  0.00    +0.000 C 
ATOM      4  C10 UNL     1       6.410  60.733  60.138  0.00  0.00    +0.000 C 
ATOM      5  C11 UNL     1       5.961  60.864  58.641  0.00  0.00    +0.000 C 
ATOM      6  O1  UNL     1       4.638  60.387  58.415  0.00  0.00    +0.000 OA
ENDROOT
BRANCH   1  12
ATOM      7  C1  UNL     1       3.201  57.577  57.507  0.00  0.00    +0.000 A 
ATOM      8  C2  UNL     1       2.026  57.016  56.999  0.00  0.00    +0.000 A 
ATOM      9  C3  UNL     1       0.781  57.396  57.519  0.00  0.00    +0.000 A 
ATOM     10  C4  UNL     1       0.716  58.345  58.546  0.00  0.00    +0.000 A 
ATOM     11  C5  UNL     1       1.896  58.908  59.055  0.00  0.00    +0.000 A 
ATOM     12  C6  UNL     1       3.148  58.518  58.550  0.00  0.00    +0.000 A 
BRANCH  10  13
ATOM     13  O6  UNL     1      -0.524  58.727  59.055  0.00  0.00    +0.000 OA
ATOM     14  H15 UNL     1      -1.370  58.216  58.828  0.00  0.00    +0.000 HD
ENDBRANCH  10  13
BRANCH   9  15
ATOM     15  O7  UNL     1      -0.392  56.838  57.017  0.00  0.00    +0.000 OA
ATOM     16  H16 UNL     1      -0.528  56.693  56.023  0.00  0.00    +0.000 HD
ENDBRANCH   9  15
ENDBRANCH   1  12
BRANCH   4  17
ATOM     17  O3  UNL     1       7.197  61.828  60.540  0.00  0.00    +0.000 OA
ATOM     18  H12 UNL     1       6.988  62.579  59.926  0.00  0.00    +0.000 HD
ENDBRANCH   4  17
BRANCH   3  19
ATOM     19  O4  UNL     1       5.590  60.447  62.389  0.00  0.00    +0.000 OA
ATOM     20  H13 UNL     1       6.439  59.934  62.371  0.00  0.00    +0.000 HD
ENDBRANCH   3  19
BRANCH   2  21
ATOM     21  O5  UNL     1       4.625  58.221  61.312  0.00  0.00    +0.000 OA
ATOM     22  H14 UNL     1       3.822  57.639  61.312  0.00  0.00    +0.000 HD
ENDBRANCH   2  21
BRANCH   5  23
ATOM     23  C12 UNL     1       6.029  62.311  58.130  0.00  0.00    +0.000 C 
BRANCH  23  24
ATOM     24  O2  UNL     1       7.322  62.591  57.668  0.00  0.00    +0.000 OA
ATOM     25  H11 UNL     1       7.879  62.738  58.476  0.00  0.00    +0.000 HD
ENDBRANCH  23  24
ENDBRANCH   5  23
TORSDOF 8
ENDMDL
MODEL 5
REMARK VINA RESULT:      -4.6      1.934      3.713
REMARK  Name = .\Catechins.pdb
REMARK  8 active torsions:
REMARK  status: ('A' for Active; 'I' for Inactive)
REMARK    1  A    between atoms: C3_3  and  O7_19
REMARK    2  A    between atoms: C4_4  and  O6_18
REMARK    3  A    between atoms: C6_6  and  C7_7
REMARK    4  A    between atoms: C8_8  and  O5_17
REMARK    5  A    between atoms: C9_9  and  O4_16
REMARK    6  A    between atoms: C10_10  and  O3_15
REMARK    7  A    between atoms: C11_11  and  C12_13
REMARK    8  A    between atoms: C12_13  and  O2_14
REMARK                            x       y       z     vdW  Elec       q    Type
REMARK                         _______ _______ _______ _____ _____    ______ ____
ROOT
ATOM      1  C7  UNL     1       1.274  57.843  59.052  0.00  0.00    +0.000 C 
ATOM      2  C8  UNL     1       0.098  58.579  59.746  0.00  0.00    +0.000 C 
ATOM      3  C9  UNL     1      -1.089  57.613  60.016  0.00  0.00    +0.000 C 
ATOM      4  C10 UNL     1      -1.131  56.502  58.953  0.00  0.00    +0.000 C 
ATOM      5  C11 UNL     1       0.240  55.743  58.904  0.00  0.00    +0.000 C 
ATOM      6  O1  UNL     1       1.310  56.491  59.473  0.00  0.00    +0.000 OA
ENDROOT
BRANCH   1  12
ATOM      7  C1  UNL     1       3.006  58.645  60.723  0.00  0.00    +0.000 A 
ATOM      8  C2  UNL     1       4.204  59.297  61.029  0.00  0.00    +0.000 A 
ATOM      9  C3  UNL     1       4.994  59.837  60.006  0.00  0.00    +0.000 A 
ATOM     10  C4  UNL     1       4.578  59.727  58.673  0.00  0.00    +0.000 A 
ATOM     11  C5  UNL     1       3.376  59.073  58.367  0.00  0.00    +0.000 A 
ATOM     12  C6  UNL     1       2.588  58.514  59.387  0.00  0.00    +0.000 A 
BRANCH  10  13
ATOM     13  O6  UNL     1       5.363  60.273  57.659  0.00  0.00    +0.000 OA
ATOM     14  H15 UNL     1       5.034  60.320  56.701  0.00  0.00    +0.000 HD
ENDBRANCH  10  13
BRANCH   9  15
ATOM     15  O7  UNL     1       6.189  60.487  60.306  0.00  0.00    +0.000 OA
ATOM     16  H16 UNL     1       7.042  60.293  59.794  0.00  0.00    +0.000 HD
ENDBRANCH   9  15
ENDBRANCH   1  12
BRANCH   4  17
ATOM     17  O3  UNL     1      -2.200  55.624  59.210  0.00  0.00    +0.000 OA
ATOM     18  H12 UNL     1      -2.366  55.113  58.375  0.00  0.00    +0.000 HD
ENDBRANCH   4  17
BRANCH   3  19
ATOM     19  O4  UNL     1      -2.307  58.310  60.035  0.00  0.00    +0.000 OA
ATOM     20  H13 UNL     1      -2.125  59.190  60.457  0.00  0.00    +0.000 HD
ENDBRANCH   3  19
BRANCH   2  21
ATOM     21  O5  UNL     1      -0.301  59.693  58.983  0.00  0.00    +0.000 OA
ATOM     22  H14 UNL     1      -0.064  60.509  59.495  0.00  0.00    +0.000 HD
ENDBRANCH   2  21
BRANCH   5  23
ATOM     23  C12 UNL     1       0.188  54.384  59.619  0.00  0.00    +0.000 C 
BRANCH  23  24
ATOM     24  O2  UNL     1      -0.326  53.411  58.752  0.00  0.00    +0.000 OA
ATOM     25  H11 UNL     1      -1.310  53.415  58.885  0.00  0.00    +0.000 HD
ENDBRANCH  23  24
ENDBRANCH   5  23
TORSDOF 8
ENDMDL
MODEL 6
REMARK VINA RESULT:      -4.5      1.885      6.013
REMARK  Name = .\Catechins.pdb
REMARK  8 active torsions:
REMARK  status: ('A' for Active; 'I' for Inactive)
REMARK    1  A    between atoms: C3_3  and  O7_19
REMARK    2  A    between atoms: C4_4  and  O6_18
REMARK    3  A    between atoms: C6_6  and  C7_7
REMARK    4  A    between atoms: C8_8  and  O5_17
REMARK    5  A    between atoms: C9_9  and  O4_16
REMARK    6  A    between atoms: C10_10  and  O3_15
REMARK    7  A    between atoms: C11_11  and  C12_13
REMARK    8  A    between atoms: C12_13  and  O2_14
REMARK                            x       y       z     vdW  Elec       q    Type
REMARK                         _______ _______ _______ _____ _____    ______ ____
ROOT
ATOM      1  C7  UNL     1       3.107  58.047  59.190  0.00  0.00    +0.000 C 
ATOM      2  C8  UNL     1       3.814  57.283  60.341  0.00  0.00    +0.000 C 
ATOM      3  C9  UNL     1       5.194  57.915  60.670  0.00  0.00    +0.000 C 
ATOM      4  C10 UNL     1       5.806  58.557  59.413  0.00  0.00    +0.000 C 
ATOM      5  C11 UNL     1       4.814  59.608  58.801  0.00  0.00    +0.000 C 
ATOM      6  O1  UNL     1       3.469  59.416  59.228  0.00  0.00    +0.000 OA
ENDROOT
BRANCH   1  12
ATOM      7  C1  UNL     1       0.836  58.958  59.860  0.00  0.00    +0.000 A 
ATOM      8  C2  UNL     1      -0.547  58.817  60.003  0.00  0.00    +0.000 A 
ATOM      9  C3  UNL     1      -1.179  57.629  59.613  0.00  0.00    +0.000 A 
ATOM     10  C4  UNL     1      -0.420  56.578  59.084  0.00  0.00    +0.000 A 
ATOM     11  C5  UNL     1       0.968  56.720  58.940  0.00  0.00    +0.000 A 
ATOM     12  C6  UNL     1       1.605  57.916  59.313  0.00  0.00    +0.000 A 
BRANCH  10  13
ATOM     13  O6  UNL     1      -1.051  55.394  58.705  0.00  0.00    +0.000 OA
ATOM     14  H15 UNL     1      -1.993  55.175  59.009  0.00  0.00    +0.000 HD
ENDBRANCH  10  13
BRANCH   9  15
ATOM     15  O7  UNL     1      -2.558  57.485  59.754  0.00  0.00    +0.000 OA
ATOM     16  H16 UNL     1      -3.008  56.581  59.670  0.00  0.00    +0.000 HD
ENDBRANCH   9  15
ENDBRANCH   1  12
BRANCH   4  17
ATOM     17  O3  UNL     1       7.050  59.138  59.720  0.00  0.00    +0.000 OA
ATOM     18  H12 UNL     1       6.921  59.696  60.531  0.00  0.00    +0.000 HD
ENDBRANCH   4  17
BRANCH   3  19
ATOM     19  O4  UNL     1       6.072  56.953  61.196  0.00  0.00    +0.000 OA
ATOM     20  H13 UNL     1       6.873  57.444  61.515  0.00  0.00    +0.000 HD
ENDBRANCH   3  19
BRANCH   2  21
ATOM     21  O5  UNL     1       3.928  55.916  60.023  0.00  0.00    +0.000 OA
ATOM     22  H14 UNL     1       3.028  55.509  60.116  0.00  0.00    +0.000 HD
ENDBRANCH   2  21
BRANCH   5  23
ATOM     23  C12 UNL     1       5.208  61.054  59.135  0.00  0.00    +0.000 C 
BRANCH  23  24
ATOM     24  O2  UNL     1       4.879  61.895  58.064  0.00  0.00    +0.000 OA
ATOM     25  H11 UNL     1       5.618  62.554  57.992  0.00  0.00    +0.000 HD
ENDBRANCH  23  24
ENDBRANCH   5  23
TORSDOF 8
ENDMDL
MODEL 7
REMARK VINA RESULT:      -4.5      2.549      6.323
REMARK  Name = .\Catechins.pdb
REMARK  8 active torsions:
REMARK  status: ('A' for Active; 'I' for Inactive)
REMARK    1  A    between atoms: C3_3  and  O7_19
REMARK    2  A    between atoms: C4_4  and  O6_18
REMARK    3  A    between atoms: C6_6  and  C7_7
REMARK    4  A    between atoms: C8_8  and  O5_17
REMARK    5  A    between atoms: C9_9  and  O4_16
REMARK    6  A    between atoms: C10_10  and  O3_15
REMARK    7  A    between atoms: C11_11  and  C12_13
REMARK    8  A    between atoms: C12_13  and  O2_14
REMARK                            x       y       z     vdW  Elec       q    Type
REMARK                         _______ _______ _______ _____ _____    ______ ____
ROOT
ATOM      1  C7  UNL     1       3.010  57.985  59.948  0.00  0.00    +0.000 C 
ATOM      2  C8  UNL     1       3.619  58.311  58.559  0.00  0.00    +0.000 C 
ATOM      3  C9  UNL     1       5.079  57.793  58.449  0.00  0.00    +0.000 C 
ATOM      4  C10 UNL     1       5.757  57.798  59.830  0.00  0.00    +0.000 C 
ATOM      5  C11 UNL     1       4.915  56.957  60.853  0.00  0.00    +0.000 C 
ATOM      6  O1  UNL     1       3.562  56.779  60.443  0.00  0.00    +0.000 OA
ENDROOT
BRANCH   1  12
ATOM      7  C1  UNL     1       0.687  58.994  59.801  0.00  0.00    +0.000 A 
ATOM      8  C2  UNL     1      -0.703  58.866  59.743  0.00  0.00    +0.000 A 
ATOM      9  C3  UNL     1      -1.295  57.596  59.743  0.00  0.00    +0.000 A 
ATOM     10  C4  UNL     1      -0.488  56.452  59.808  0.00  0.00    +0.000 A 
ATOM     11  C5  UNL     1       0.907  56.582  59.865  0.00  0.00    +0.000 A 
ATOM     12  C6  UNL     1       1.507  57.852  59.848  0.00  0.00    +0.000 A 
BRANCH  10  13
ATOM     13  O6  UNL     1      -1.081  55.191  59.816  0.00  0.00    +0.000 OA
ATOM     14  H15 UNL     1      -0.571  54.367  60.115  0.00  0.00    +0.000 HD
ENDBRANCH  10  13
BRANCH   9  15
ATOM     15  O7  UNL     1      -2.680  57.464  59.685  0.00  0.00    +0.000 OA
ATOM     16  H16 UNL     1      -3.122  56.751  59.115  0.00  0.00    +0.000 HD
ENDBRANCH   9  15
ENDBRANCH   1  12
BRANCH   4  17
ATOM     17  O3  UNL     1       7.075  57.316  59.727  0.00  0.00    +0.000 OA
ATOM     18  H12 UNL     1       7.453  57.677  58.883  0.00  0.00    +0.000 HD
ENDBRANCH   4  17
BRANCH   3  19
ATOM     19  O4  UNL     1       5.820  58.572  57.546  0.00  0.00    +0.000 OA
ATOM     20  H13 UNL     1       6.697  58.747  57.976  0.00  0.00    +0.000 HD
ENDBRANCH   3  19
BRANCH   2  21
ATOM     21  O5  UNL     1       3.535  59.693  58.299  0.00  0.00    +0.000 OA
ATOM     22  H14 UNL     1       3.197  60.134  59.121  0.00  0.00    +0.000 HD
ENDBRANCH   2  21
BRANCH   5  23
ATOM     23  C12 UNL     1       5.513  55.566  61.107  0.00  0.00    +0.000 C 
BRANCH  23  24
ATOM     24  O2  UNL     1       6.552  55.660  62.042  0.00  0.00    +0.000 OA
ATOM     25  H11 UNL     1       6.273  56.351  62.697  0.00  0.00    +0.000 HD
ENDBRANCH  23  24
ENDBRANCH   5  23
TORSDOF 8
ENDMDL
MODEL 8
REMARK VINA RESULT:      -4.5      3.254      5.035
REMARK  Name = .\Catechins.pdb
REMARK  8 active torsions:
REMARK  status: ('A' for Active; 'I' for Inactive)
REMARK    1  A    between atoms: C3_3  and  O7_19
REMARK    2  A    between atoms: C4_4  and  O6_18
REMARK    3  A    between atoms: C6_6  and  C7_7
REMARK    4  A    between atoms: C8_8  and  O5_17
REMARK    5  A    between atoms: C9_9  and  O4_16
REMARK    6  A    between atoms: C10_10  and  O3_15
REMARK    7  A    between atoms: C11_11  and  C12_13
REMARK    8  A    between atoms: C12_13  and  O2_14
REMARK                            x       y       z     vdW  Elec       q    Type
REMARK                         _______ _______ _______ _____ _____    ______ ____
ROOT
ATOM      1  C7  UNL     1      -0.451  57.132  58.350  0.00  0.00    +0.000 C 
ATOM      2  C8  UNL     1      -1.447  56.424  59.306  0.00  0.00    +0.000 C 
ATOM      3  C9  UNL     1      -2.309  55.379  58.547  0.00  0.00    +0.000 C 
ATOM      4  C10 UNL     1      -2.510  55.807  57.084  0.00  0.00    +0.000 C 
ATOM      5  C11 UNL     1      -1.122  56.034  56.388  0.00  0.00    +0.000 C 
ATOM      6  O1  UNL     1      -0.063  56.243  57.318  0.00  0.00    +0.000 OA
ENDROOT
BRANCH   1  12
ATOM      7  C1  UNL     1       1.008  57.158  60.424  0.00  0.00    +0.000 A 
ATOM      8  C2  UNL     1       2.121  57.616  61.133  0.00  0.00    +0.000 A 
ATOM      9  C3  UNL     1       3.009  58.526  60.542  0.00  0.00    +0.000 A 
ATOM     10  C4  UNL     1       2.773  58.981  59.239  0.00  0.00    +0.000 A 
ATOM     11  C5  UNL     1       1.656  58.521  58.528  0.00  0.00    +0.000 A 
ATOM     12  C6  UNL     1       0.772  57.595  59.109  0.00  0.00    +0.000 A 
BRANCH  10  13
ATOM     13  O6  UNL     1       3.654  59.892  58.657  0.00  0.00    +0.000 OA
ATOM     14  H15 UNL     1       3.829  59.897  57.659  0.00  0.00    +0.000 HD
ENDBRANCH  10  13
BRANCH   9  15
ATOM     15  O7  UNL     1       4.121  58.984  61.245  0.00  0.00    +0.000 OA
ATOM     16  H16 UNL     1       5.032  58.555  61.136  0.00  0.00    +0.000 HD
ENDBRANCH   9  15
ENDBRANCH   1  12
BRANCH   4  17
ATOM     17  O3  UNL     1      -3.281  54.850  56.398  0.00  0.00    +0.000 OA
ATOM     18  H12 UNL     1      -3.160  55.018  55.428  0.00  0.00    +0.000 HD
ENDBRANCH   4  17
BRANCH   3  19
ATOM     19  O4  UNL     1      -3.554  55.207  59.174  0.00  0.00    +0.000 OA
ATOM     20  H13 UNL     1      -4.089  56.018  58.970  0.00  0.00    +0.000 HD
ENDBRANCH   3  19
BRANCH   2  21
ATOM     21  O5  UNL     1      -2.245  57.374  59.973  0.00  0.00    +0.000 OA
ATOM     22  H14 UNL     1      -2.174  57.197  60.946  0.00  0.00    +0.000 HD
ENDBRANCH   2  21
BRANCH   5  23
ATOM     23  C12 UNL     1      -0.720  54.863  55.478  0.00  0.00    +0.000 C 
BRANCH  23  24
ATOM     24  O2  UNL     1      -0.557  55.319  54.163  0.00  0.00    +0.000 OA
ATOM     25  H11 UNL     1      -1.319  54.949  53.647  0.00  0.00    +0.000 HD
ENDBRANCH  23  24
ENDBRANCH   5  23
TORSDOF 8
ENDMDL
MODEL 9
REMARK VINA RESULT:      -4.4      2.591      3.646
REMARK  Name = .\Catechins.pdb
REMARK  8 active torsions:
REMARK  status: ('A' for Active; 'I' for Inactive)
REMARK    1  A    between atoms: C3_3  and  O7_19
REMARK    2  A    between atoms: C4_4  and  O6_18
REMARK    3  A    between atoms: C6_6  and  C7_7
REMARK    4  A    between atoms: C8_8  and  O5_17
REMARK    5  A    between atoms: C9_9  and  O4_16
REMARK    6  A    between atoms: C10_10  and  O3_15
REMARK    7  A    between atoms: C11_11  and  C12_13
REMARK    8  A    between atoms: C12_13  and  O2_14
REMARK                            x       y       z     vdW  Elec       q    Type
REMARK                         _______ _______ _______ _____ _____    ______ ____
ROOT
ATOM      1  C7  UNL     1       1.230  56.599  58.688  0.00  0.00    +0.000 C 
ATOM      2  C8  UNL     1       1.306  56.779  57.149  0.00  0.00    +0.000 C 
ATOM      3  C9  UNL     1      -0.112  56.802  56.514  0.00  0.00    +0.000 C 
ATOM      4  C10 UNL     1      -1.086  55.949  57.344  0.00  0.00    +0.000 C 
ATOM      5  C11 UNL     1      -1.106  56.439  58.834  0.00  0.00    +0.000 C 
ATOM      6  O1  UNL     1       0.047  57.199  59.183  0.00  0.00    +0.000 OA
ENDROOT
BRANCH   1  12
ATOM      7  C1  UNL     1       3.273  56.463  60.184  0.00  0.00    +0.000 A 
ATOM      8  C2  UNL     1       4.366  57.055  60.824  0.00  0.00    +0.000 A 
ATOM      9  C3  UNL     1       4.629  58.421  60.651  0.00  0.00    +0.000 A 
ATOM     10  C4  UNL     1       3.789  59.194  59.838  0.00  0.00    +0.000 A 
ATOM     11  C5  UNL     1       2.693  58.599  59.197  0.00  0.00    +0.000 A 
ATOM     12  C6  UNL     1       2.435  57.226  59.353  0.00  0.00    +0.000 A 
BRANCH  10  13
ATOM     13  O6  UNL     1       4.049  60.554  59.676  0.00  0.00    +0.000 OA
ATOM     14  H15 UNL     1       3.331  61.197  59.363  0.00  0.00    +0.000 HD
ENDBRANCH  10  13
BRANCH   9  15
ATOM     15  O7  UNL     1       5.717  59.015  61.285  0.00  0.00    +0.000 OA
ATOM     16  H16 UNL     1       5.604  59.822  61.889  0.00  0.00    +0.000 HD
ENDBRANCH   9  15
ENDBRANCH   1  12
BRANCH   4  17
ATOM     17  O3  UNL     1      -2.372  55.984  56.772  0.00  0.00    +0.000 OA
ATOM     18  H12 UNL     1      -2.917  55.295  57.234  0.00  0.00    +0.000 HD
ENDBRANCH   4  17
BRANCH   3  19
ATOM     19  O4  UNL     1      -0.075  56.340  55.189  0.00  0.00    +0.000 OA
ATOM     20  H13 UNL     1       0.868  56.096  54.999  0.00  0.00    +0.000 HD
ENDBRANCH   3  19
BRANCH   2  21
ATOM     21  O5  UNL     1       2.116  55.778  56.578  0.00  0.00    +0.000 OA
ATOM     22  H14 UNL     1       2.965  56.204  56.292  0.00  0.00    +0.000 HD
ENDBRANCH   2  21
BRANCH   5  23
ATOM     23  C12 UNL     1      -2.343  57.289  59.160  0.00  0.00    +0.000 C 
BRANCH  23  24
ATOM     24  O2  UNL     1      -1.987  58.330  60.028  0.00  0.00    +0.000 OA
ATOM     25  H11 UNL     1      -2.829  58.627  60.462  0.00  0.00    +0.000 HD
ENDBRANCH  23  24
ENDBRANCH   5  23
TORSDOF 8
ENDMDL
