MODEL 1
REMARK VINA RESULT:      -4.7      0.000      0.000
REMARK  Name = .\Catechins.pdb
REMARK  8 active torsions:
REMARK  status: ('A' for Active; 'I' for Inactive)
REMARK    1  A    between atoms: C3_3  and  O7_19
REMARK    2  A    between atoms: C4_4  and  O6_18
REMARK    3  A    between atoms: C6_6  and  C7_7
REMARK    4  A    between atoms: C8_8  and  O5_17
REMARK    5  A    between atoms: C9_9  and  O4_16
REMARK    6  A    between atoms: C10_10  and  O3_15
REMARK    7  A    between atoms: C11_11  and  C12_13
REMARK    8  A    between atoms: C12_13  and  O2_14
REMARK                            x       y       z     vdW  Elec       q    Type
REMARK                         _______ _______ _______ _____ _____    ______ ____
ROOT
ATOM      1  C7  UNL     1     -28.083  37.882  -9.919  0.00  0.00    +0.000 C 
ATOM      2  C8  UNL     1     -28.488  37.410 -11.340  0.00  0.00    +0.000 C 
ATOM      3  C9  UNL     1     -30.020  37.175 -11.440  0.00  0.00    +0.000 C 
ATOM      4  C10 UNL     1     -30.588  36.745 -10.077  0.00  0.00    +0.000 C 
ATOM      5  C11 UNL     1     -30.231  37.806  -8.978  0.00  0.00    +0.000 C 
ATOM      6  O1  UNL     1     -29.135  38.638  -9.347  0.00  0.00    +0.000 OA
ENDROOT
BRANCH   1  12
ATOM      7  C1  UNL     1     -26.841  39.990 -10.589  0.00  0.00    +0.000 A 
ATOM      8  C2  UNL     1     -25.670  40.748 -10.673  0.00  0.00    +0.000 A 
ATOM      9  C3  UNL     1     -24.466  40.245 -10.160  0.00  0.00    +0.000 A 
ATOM     10  C4  UNL     1     -24.438  38.977  -9.567  0.00  0.00    +0.000 A 
ATOM     11  C5  UNL     1     -25.614  38.217  -9.483  0.00  0.00    +0.000 A 
ATOM     12  C6  UNL     1     -26.827  38.723  -9.980  0.00  0.00    +0.000 A 
BRANCH  10  13
ATOM     13  O6  UNL     1     -23.237  38.477  -9.065  0.00  0.00    +0.000 OA
ATOM     14  H15 UNL     1     -22.421  38.368  -9.656  0.00  0.00    +0.000 HD
ENDBRANCH  10  13
BRANCH   9  15
ATOM     15  O7  UNL     1     -23.297  40.998 -10.241  0.00  0.00    +0.000 OA
ATOM     16  H16 UNL     1     -22.921  41.482  -9.434  0.00  0.00    +0.000 HD
ENDBRANCH   9  15
ENDBRANCH   1  12
BRANCH   4  17
ATOM     17  O3  UNL     1     -31.978  36.546 -10.170  0.00  0.00    +0.000 OA
ATOM     18  H12 UNL     1     -32.131  35.566 -10.209  0.00  0.00    +0.000 HD
ENDBRANCH   4  17
BRANCH   3  19
ATOM     19  O4  UNL     1     -30.316  36.207 -12.413  0.00  0.00    +0.000 OA
ATOM     20  H13 UNL     1     -29.458  35.978 -12.855  0.00  0.00    +0.000 HD
ENDBRANCH   3  19
BRANCH   2  21
ATOM     21  O5  UNL     1     -27.760  36.259 -11.700  0.00  0.00    +0.000 OA
ATOM     22  H14 UNL     1     -27.924  35.570 -11.006  0.00  0.00    +0.000 HD
ENDBRANCH   2  21
BRANCH   5  23
ATOM     23  C12 UNL     1     -31.416  38.721  -8.634  0.00  0.00    +0.000 C 
BRANCH  23  24
ATOM     24  O2  UNL     1     -31.229  39.980  -9.218  0.00  0.00    +0.000 OA
ATOM     25  H11 UNL     1     -30.814  39.815 -10.104  0.00  0.00    +0.000 HD
ENDBRANCH  23  24
ENDBRANCH   5  23
TORSDOF 8
ENDMDL
MODEL 2
REMARK VINA RESULT:      -4.5      1.722      6.391
REMARK  Name = .\Catechins.pdb
REMARK  8 active torsions:
REMARK  status: ('A' for Active; 'I' for Inactive)
REMARK    1  A    between atoms: C3_3  and  O7_19
REMARK    2  A    between atoms: C4_4  and  O6_18
REMARK    3  A    between atoms: C6_6  and  C7_7
REMARK    4  A    between atoms: C8_8  and  O5_17
REMARK    5  A    between atoms: C9_9  and  O4_16
REMARK    6  A    between atoms: C10_10  and  O3_15
REMARK    7  A    between atoms: C11_11  and  C12_13
REMARK    8  A    between atoms: C12_13  and  O2_14
REMARK                            x       y       z     vdW  Elec       q    Type
REMARK                         _______ _______ _______ _____ _____    ______ ____
ROOT
ATOM      1  C7  UNL     1     -26.366  38.221  -9.847  0.00  0.00    +0.000 C 
ATOM      2  C8  UNL     1     -25.782  39.553 -10.386  0.00  0.00    +0.000 C 
ATOM      3  C9  UNL     1     -24.262  39.424 -10.679  0.00  0.00    +0.000 C 
ATOM      4  C10 UNL     1     -23.618  38.394  -9.734  0.00  0.00    +0.000 C 
ATOM      5  C11 UNL     1     -24.354  37.014  -9.850  0.00  0.00    +0.000 C 
ATOM      6  O1  UNL     1     -25.660  37.127 -10.406  0.00  0.00    +0.000 OA
ENDROOT
BRANCH   1  12
ATOM      7  C1  UNL     1     -28.257  37.323 -11.280  0.00  0.00    +0.000 A 
ATOM      8  C2  UNL     1     -29.611  37.251 -11.617  0.00  0.00    +0.000 A 
ATOM      9  C3  UNL     1     -30.560  37.973 -10.880  0.00  0.00    +0.000 A 
ATOM     10  C4  UNL     1     -30.147  38.773  -9.807  0.00  0.00    +0.000 A 
ATOM     11  C5  UNL     1     -28.788  38.844  -9.470  0.00  0.00    +0.000 A 
ATOM     12  C6  UNL     1     -27.834  38.109 -10.193  0.00  0.00    +0.000 A 
BRANCH  10  13
ATOM     13  O6  UNL     1     -31.094  39.496  -9.083  0.00  0.00    +0.000 OA
ATOM     14  H15 UNL     1     -31.623  39.071  -8.331  0.00  0.00    +0.000 HD
ENDBRANCH  10  13
BRANCH   9  15
ATOM     15  O7  UNL     1     -31.911  37.903 -11.212  0.00  0.00    +0.000 OA
ATOM     16  H16 UNL     1     -32.628  38.279 -10.601  0.00  0.00    +0.000 HD
ENDBRANCH   9  15
ENDBRANCH   1  12
BRANCH   4  17
ATOM     17  O3  UNL     1     -22.244  38.272 -10.012  0.00  0.00    +0.000 OA
ATOM     18  H12 UNL     1     -21.884  37.570  -9.410  0.00  0.00    +0.000 HD
ENDBRANCH   4  17
BRANCH   3  19
ATOM     19  O4  UNL     1     -23.619  40.665 -10.549  0.00  0.00    +0.000 OA
ATOM     20  H13 UNL     1     -23.430  40.787  -9.582  0.00  0.00    +0.000 HD
ENDBRANCH   3  19
BRANCH   2  21
ATOM     21  O5  UNL     1     -26.052  40.605  -9.489  0.00  0.00    +0.000 OA
ATOM     22  H14 UNL     1     -25.184  40.942  -9.149  0.00  0.00    +0.000 HD
ENDBRANCH   2  21
BRANCH   5  23
ATOM     23  C12 UNL     1     -23.573  35.998 -10.696  0.00  0.00    +0.000 C 
BRANCH  23  24
ATOM     24  O2  UNL     1     -23.554  36.410 -12.035  0.00  0.00    +0.000 OA
ATOM     25  H11 UNL     1     -23.874  37.349 -12.039  0.00  0.00    +0.000 HD
ENDBRANCH  23  24
ENDBRANCH   5  23
TORSDOF 8
ENDMDL
MODEL 3
REMARK VINA RESULT:      -4.2      1.687      6.411
REMARK  Name = .\Catechins.pdb
REMARK  8 active torsions:
REMARK  status: ('A' for Active; 'I' for Inactive)
REMARK    1  A    between atoms: C3_3  and  O7_19
REMARK    2  A    between atoms: C4_4  and  O6_18
REMARK    3  A    between atoms: C6_6  and  C7_7
REMARK    4  A    between atoms: C8_8  and  O5_17
REMARK    5  A    between atoms: C9_9  and  O4_16
REMARK    6  A    between atoms: C10_10  and  O3_15
REMARK    7  A    between atoms: C11_11  and  C12_13
REMARK    8  A    between atoms: C12_13  and  O2_14
REMARK                            x       y       z     vdW  Elec       q    Type
REMARK                         _______ _______ _______ _____ _____    ______ ____
ROOT
ATOM      1  C7  UNL     1     -26.311  38.215  -9.834  0.00  0.00    +0.000 C 
ATOM      2  C8  UNL     1     -25.724  39.519 -10.436  0.00  0.00    +0.000 C 
ATOM      3  C9  UNL     1     -24.200  39.379 -10.703  0.00  0.00    +0.000 C 
ATOM      4  C10 UNL     1     -23.566  38.405  -9.696  0.00  0.00    +0.000 C 
ATOM      5  C11 UNL     1     -24.296  37.018  -9.746  0.00  0.00    +0.000 C 
ATOM      6  O1  UNL     1     -25.596  37.096 -10.324  0.00  0.00    +0.000 OA
ENDROOT
BRANCH   1  12
ATOM      7  C1  UNL     1     -28.775  38.446  -9.274  0.00  0.00    +0.000 A 
ATOM      8  C2  UNL     1     -30.125  38.286  -9.597  0.00  0.00    +0.000 A 
ATOM      9  C3  UNL     1     -30.494  37.749 -10.838  0.00  0.00    +0.000 A 
ATOM     10  C4  UNL     1     -29.506  37.365 -11.753  0.00  0.00    +0.000 A 
ATOM     11  C5  UNL     1     -28.151  37.526 -11.428  0.00  0.00    +0.000 A 
ATOM     12  C6  UNL     1     -27.775  38.080 -10.193  0.00  0.00    +0.000 A 
BRANCH  10  13
ATOM     13  O6  UNL     1     -29.877  36.824 -12.982  0.00  0.00    +0.000 OA
ATOM     14  H15 UNL     1     -30.694  37.155 -13.482  0.00  0.00    +0.000 HD
ENDBRANCH  10  13
BRANCH   9  15
ATOM     15  O7  UNL     1     -31.839  37.590 -11.164  0.00  0.00    +0.000 OA
ATOM     16  H16 UNL     1     -32.204  37.873 -12.067  0.00  0.00    +0.000 HD
ENDBRANCH   9  15
ENDBRANCH   1  12
BRANCH   4  17
ATOM     17  O3  UNL     1     -22.188  38.273  -9.950  0.00  0.00    +0.000 OA
ATOM     18  H12 UNL     1     -21.920  39.041 -10.519  0.00  0.00    +0.000 HD
ENDBRANCH   4  17
BRANCH   3  19
ATOM     19  O4  UNL     1     -23.563  40.629 -10.632  0.00  0.00    +0.000 OA
ATOM     20  H13 UNL     1     -22.835  40.615 -11.306  0.00  0.00    +0.000 HD
ENDBRANCH   3  19
BRANCH   2  21
ATOM     21  O5  UNL     1     -26.009  40.616  -9.601  0.00  0.00    +0.000 OA
ATOM     22  H14 UNL     1     -25.200  41.189  -9.570  0.00  0.00    +0.000 HD
ENDBRANCH   2  21
BRANCH   5  23
ATOM     23  C12 UNL     1     -23.501  35.960 -10.527  0.00  0.00    +0.000 C 
BRANCH  23  24
ATOM     24  O2  UNL     1     -23.284  36.402 -11.838  0.00  0.00    +0.000 OA
ATOM     25  H11 UNL     1     -23.644  35.693 -12.432  0.00  0.00    +0.000 HD
ENDBRANCH  23  24
ENDBRANCH   5  23
TORSDOF 8
ENDMDL
MODEL 4
REMARK VINA RESULT:      -4.2      0.773      1.556
REMARK  Name = .\Catechins.pdb
REMARK  8 active torsions:
REMARK  status: ('A' for Active; 'I' for Inactive)
REMARK    1  A    between atoms: C3_3  and  O7_19
REMARK    2  A    between atoms: C4_4  and  O6_18
REMARK    3  A    between atoms: C6_6  and  C7_7
REMARK    4  A    between atoms: C8_8  and  O5_17
REMARK    5  A    between atoms: C9_9  and  O4_16
REMARK    6  A    between atoms: C10_10  and  O3_15
REMARK    7  A    between atoms: C11_11  and  C12_13
REMARK    8  A    between atoms: C12_13  and  O2_14
REMARK                            x       y       z     vdW  Elec       q    Type
REMARK                         _______ _______ _______ _____ _____    ______ ____
ROOT
ATOM      1  C7  UNL     1     -28.273  37.445  -9.957  0.00  0.00    +0.000 C 
ATOM      2  C8  UNL     1     -28.775  37.297 -11.417  0.00  0.00    +0.000 C 
ATOM      3  C9  UNL     1     -30.327  37.299 -11.482  0.00  0.00    +0.000 C 
ATOM      4  C10 UNL     1     -30.919  36.712 -10.189  0.00  0.00    +0.000 C 
ATOM      5  C11 UNL     1     -30.386  37.498  -8.940  0.00  0.00    +0.000 C 
ATOM      6  O1  UNL     1     -29.191  38.223  -9.210  0.00  0.00    +0.000 OA
ENDROOT
BRANCH   1  12
ATOM      7  C1  UNL     1     -25.778  37.386  -9.500  0.00  0.00    +0.000 A 
ATOM      8  C2  UNL     1     -24.528  38.007  -9.445  0.00  0.00    +0.000 A 
ATOM      9  C3  UNL     1     -24.393  39.355  -9.807  0.00  0.00    +0.000 A 
ATOM     10  C4  UNL     1     -25.517  40.081 -10.219  0.00  0.00    +0.000 A 
ATOM     11  C5  UNL     1     -26.772  39.456 -10.275  0.00  0.00    +0.000 A 
ATOM     12  C6  UNL     1     -26.910  38.101  -9.930  0.00  0.00    +0.000 A 
BRANCH  10  13
ATOM     13  O6  UNL     1     -25.380  41.423 -10.571  0.00  0.00    +0.000 OA
ATOM     14  H15 UNL     1     -25.209  42.138  -9.873  0.00  0.00    +0.000 HD
ENDBRANCH  10  13
BRANCH   9  15
ATOM     15  O7  UNL     1     -23.148  39.977  -9.754  0.00  0.00    +0.000 OA
ATOM     16  H16 UNL     1     -23.055  40.958  -9.515  0.00  0.00    +0.000 HD
ENDBRANCH   9  15
ENDBRANCH   1  12
BRANCH   4  17
ATOM     17  O3  UNL     1     -32.325  36.727 -10.248  0.00  0.00    +0.000 OA
ATOM     18  H12 UNL     1     -32.577  37.078 -11.142  0.00  0.00    +0.000 HD
ENDBRANCH   4  17
BRANCH   3  19
ATOM     19  O4  UNL     1     -30.782  36.573 -12.594  0.00  0.00    +0.000 OA
ATOM     20  H13 UNL     1     -30.385  35.666 -12.523  0.00  0.00    +0.000 HD
ENDBRANCH   3  19
BRANCH   2  21
ATOM     21  O5  UNL     1     -28.229  36.142 -12.009  0.00  0.00    +0.000 OA
ATOM     22  H14 UNL     1     -27.242  36.241 -12.011  0.00  0.00    +0.000 HD
ENDBRANCH   2  21
BRANCH   5  23
ATOM     23  C12 UNL     1     -31.418  38.490  -8.383  0.00  0.00    +0.000 C 
BRANCH  23  24
ATOM     24  O2  UNL     1     -31.509  39.604  -9.227  0.00  0.00    +0.000 OA
ATOM     25  H11 UNL     1     -31.108  39.329 -10.092  0.00  0.00    +0.000 HD
ENDBRANCH  23  24
ENDBRANCH   5  23
TORSDOF 8
ENDMDL
MODEL 5
REMARK VINA RESULT:      -3.9      1.944      2.767
REMARK  Name = .\Catechins.pdb
REMARK  8 active torsions:
REMARK  status: ('A' for Active; 'I' for Inactive)
REMARK    1  A    between atoms: C3_3  and  O7_19
REMARK    2  A    between atoms: C4_4  and  O6_18
REMARK    3  A    between atoms: C6_6  and  C7_7
REMARK    4  A    between atoms: C8_8  and  O5_17
REMARK    5  A    between atoms: C9_9  and  O4_16
REMARK    6  A    between atoms: C10_10  and  O3_15
REMARK    7  A    between atoms: C11_11  and  C12_13
REMARK    8  A    between atoms: C12_13  and  O2_14
REMARK                            x       y       z     vdW  Elec       q    Type
REMARK                         _______ _______ _______ _____ _____    ______ ____
ROOT
ATOM      1  C7  UNL     1     -27.445  37.890  -9.843  0.00  0.00    +0.000 C 
ATOM      2  C8  UNL     1     -27.715  36.751  -8.825  0.00  0.00    +0.000 C 
ATOM      3  C9  UNL     1     -29.206  36.318  -8.847  0.00  0.00    +0.000 C 
ATOM      4  C10 UNL     1     -30.105  37.504  -9.235  0.00  0.00    +0.000 C 
ATOM      5  C11 UNL     1     -29.651  38.104 -10.611  0.00  0.00    +0.000 C 
ATOM      6  O1  UNL     1     -28.313  37.756 -10.954  0.00  0.00    +0.000 OA
ENDROOT
BRANCH   1  12
ATOM      7  C1  UNL     1     -25.617  36.982 -11.349  0.00  0.00    +0.000 A 
ATOM      8  C2  UNL     1     -24.281  36.923 -11.756  0.00  0.00    +0.000 A 
ATOM      9  C3  UNL     1     -23.316  37.721 -11.126  0.00  0.00    +0.000 A 
ATOM     10  C4  UNL     1     -23.693  38.575 -10.081  0.00  0.00    +0.000 A 
ATOM     11  C5  UNL     1     -25.033  38.633  -9.673  0.00  0.00    +0.000 A 
ATOM     12  C6  UNL     1     -26.008  37.849 -10.313  0.00  0.00    +0.000 A 
BRANCH  10  13
ATOM     13  O6  UNL     1     -22.728  39.360  -9.451  0.00  0.00    +0.000 OA
ATOM     14  H15 UNL     1     -22.186  40.046  -9.964  0.00  0.00    +0.000 HD
ENDBRANCH  10  13
BRANCH   9  15
ATOM     15  O7  UNL     1     -21.984  37.666 -11.529  0.00  0.00    +0.000 OA
ATOM     16  H16 UNL     1     -21.367  36.922 -11.224  0.00  0.00    +0.000 HD
ENDBRANCH   9  15
ENDBRANCH   1  12
BRANCH   4  17
ATOM     17  O3  UNL     1     -31.454  37.103  -9.265  0.00  0.00    +0.000 OA
ATOM     18  H12 UNL     1     -31.635  36.753 -10.176  0.00  0.00    +0.000 HD
ENDBRANCH   4  17
BRANCH   3  19
ATOM     19  O4  UNL     1     -29.597  35.804  -7.600  0.00  0.00    +0.000 OA
ATOM     20  H13 UNL     1     -29.100  34.955  -7.474  0.00  0.00    +0.000 HD
ENDBRANCH   3  19
BRANCH   2  21
ATOM     21  O5  UNL     1     -27.303  37.139  -7.535  0.00  0.00    +0.000 OA
ATOM     22  H14 UNL     1     -26.525  36.577  -7.286  0.00  0.00    +0.000 HD
ENDBRANCH   2  21
BRANCH   5  23
ATOM     23  C12 UNL     1     -30.559  37.669 -11.772  0.00  0.00    +0.000 C 
BRANCH  23  24
ATOM     24  O2  UNL     1     -31.599  38.594 -11.933  0.00  0.00    +0.000 OA
ATOM     25  H11 UNL     1     -31.216  39.482 -11.709  0.00  0.00    +0.000 HD
ENDBRANCH  23  24
ENDBRANCH   5  23
TORSDOF 8
ENDMDL
MODEL 6
REMARK VINA RESULT:      -3.6      1.435      2.739
REMARK  Name = .\Catechins.pdb
REMARK  8 active torsions:
REMARK  status: ('A' for Active; 'I' for Inactive)
REMARK    1  A    between atoms: C3_3  and  O7_19
REMARK    2  A    between atoms: C4_4  and  O6_18
REMARK    3  A    between atoms: C6_6  and  C7_7
REMARK    4  A    between atoms: C8_8  and  O5_17
REMARK    5  A    between atoms: C9_9  and  O4_16
REMARK    6  A    between atoms: C10_10  and  O3_15
REMARK    7  A    between atoms: C11_11  and  C12_13
REMARK    8  A    between atoms: C12_13  and  O2_14
REMARK                            x       y       z     vdW  Elec       q    Type
REMARK                         _______ _______ _______ _____ _____    ______ ____
ROOT
ATOM      1  C7  UNL     1     -27.983  38.263 -10.251  0.00  0.00    +0.000 C 
ATOM      2  C8  UNL     1     -28.432  37.320  -9.103  0.00  0.00    +0.000 C 
ATOM      3  C9  UNL     1     -29.442  36.255  -9.612  0.00  0.00    +0.000 C 
ATOM      4  C10 UNL     1     -30.264  36.812 -10.787  0.00  0.00    +0.000 C 
ATOM      5  C11 UNL     1     -29.313  37.308 -11.931  0.00  0.00    +0.000 C 
ATOM      6  O1  UNL     1     -27.985  37.558 -11.479  0.00  0.00    +0.000 OA
ENDROOT
BRANCH   1  12
ATOM      7  C1  UNL     1     -26.295  40.155 -10.227  0.00  0.00    +0.000 A 
ATOM      8  C2  UNL     1     -25.004  40.643 -10.006  0.00  0.00    +0.000 A 
ATOM      9  C3  UNL     1     -23.996  39.786  -9.543  0.00  0.00    +0.000 A 
ATOM     10  C4  UNL     1     -24.283  38.435  -9.308  0.00  0.00    +0.000 A 
ATOM     11  C5  UNL     1     -25.579  37.947  -9.531  0.00  0.00    +0.000 A 
ATOM     12  C6  UNL     1     -26.598  38.805  -9.977  0.00  0.00    +0.000 A 
BRANCH  10  13
ATOM     13  O6  UNL     1     -23.276  37.584  -8.857  0.00  0.00    +0.000 OA
ATOM     14  H15 UNL     1     -22.390  37.944  -8.522  0.00  0.00    +0.000 HD
ENDBRANCH  10  13
BRANCH   9  15
ATOM     15  O7  UNL     1     -22.708  40.268  -9.320  0.00  0.00    +0.000 OA
ATOM     16  H16 UNL     1     -22.480  41.248  -9.441  0.00  0.00    +0.000 HD
ENDBRANCH   9  15
ENDBRANCH   1  12
BRANCH   4  17
ATOM     17  O3  UNL     1     -31.169  35.839 -11.252  0.00  0.00    +0.000 OA
ATOM     18  H12 UNL     1     -30.973  35.693 -12.214  0.00  0.00    +0.000 HD
ENDBRANCH   4  17
BRANCH   3  19
ATOM     19  O4  UNL     1     -30.297  35.841  -8.578  0.00  0.00    +0.000 OA
ATOM     20  H13 UNL     1     -31.206  36.159  -8.818  0.00  0.00    +0.000 HD
ENDBRANCH   3  19
BRANCH   2  21
ATOM     21  O5  UNL     1     -28.958  38.067  -8.032  0.00  0.00    +0.000 OA
ATOM     22  H14 UNL     1     -28.268  38.724  -7.755  0.00  0.00    +0.000 HD
ENDBRANCH   2  21
BRANCH   5  23
ATOM     23  C12 UNL     1     -29.228  36.314 -13.100  0.00  0.00    +0.000 C 
BRANCH  23  24
ATOM     24  O2  UNL     1     -27.926  35.806 -13.197  0.00  0.00    +0.000 OA
ATOM     25  H11 UNL     1     -27.906  34.990 -12.631  0.00  0.00    +0.000 HD
ENDBRANCH  23  24
ENDBRANCH   5  23
TORSDOF 8
ENDMDL
MODEL 7
REMARK VINA RESULT:      -3.5      2.301      6.376
REMARK  Name = .\Catechins.pdb
REMARK  8 active torsions:
REMARK  status: ('A' for Active; 'I' for Inactive)
REMARK    1  A    between atoms: C3_3  and  O7_19
REMARK    2  A    between atoms: C4_4  and  O6_18
REMARK    3  A    between atoms: C6_6  and  C7_7
REMARK    4  A    between atoms: C8_8  and  O5_17
REMARK    5  A    between atoms: C9_9  and  O4_16
REMARK    6  A    between atoms: C10_10  and  O3_15
REMARK    7  A    between atoms: C11_11  and  C12_13
REMARK    8  A    between atoms: C12_13  and  O2_14
REMARK                            x       y       z     vdW  Elec       q    Type
REMARK                         _______ _______ _______ _____ _____    ______ ____
ROOT
ATOM      1  C7  UNL     1     -26.042  37.633  -9.324  0.00  0.00    +0.000 C 
ATOM      2  C8  UNL     1     -25.636  37.354 -10.795  0.00  0.00    +0.000 C 
ATOM      3  C9  UNL     1     -24.192  36.789 -10.883  0.00  0.00    +0.000 C 
ATOM      4  C10 UNL     1     -23.333  37.327  -9.726  0.00  0.00    +0.000 C 
ATOM      5  C11 UNL     1     -24.006  36.995  -8.349  0.00  0.00    +0.000 C 
ATOM      6  O1  UNL     1     -25.397  36.710  -8.465  0.00  0.00    +0.000 OA
ENDROOT
BRANCH   1  12
ATOM      7  C1  UNL     1     -28.124  36.318  -8.717  0.00  0.00    +0.000 A 
ATOM      8  C2  UNL     1     -29.513  36.208  -8.599  0.00  0.00    +0.000 A 
ATOM      9  C3  UNL     1     -30.337  37.291  -8.932  0.00  0.00    +0.000 A 
ATOM     10  C4  UNL     1     -29.767  38.485  -9.389  0.00  0.00    +0.000 A 
ATOM     11  C5  UNL     1     -28.374  38.596  -9.507  0.00  0.00    +0.000 A 
ATOM     12  C6  UNL     1     -27.541  37.519  -9.158  0.00  0.00    +0.000 A 
BRANCH  10  13
ATOM     13  O6  UNL     1     -30.591  39.558  -9.727  0.00  0.00    +0.000 OA
ATOM     14  H15 UNL     1     -30.274  40.296 -10.344  0.00  0.00    +0.000 HD
ENDBRANCH  10  13
BRANCH   9  15
ATOM     15  O7  UNL     1     -31.721  37.185  -8.814  0.00  0.00    +0.000 OA
ATOM     16  H16 UNL     1     -32.240  37.729  -8.134  0.00  0.00    +0.000 HD
ENDBRANCH   9  15
ENDBRANCH   1  12
BRANCH   4  17
ATOM     17  O3  UNL     1     -22.029  36.802  -9.804  0.00  0.00    +0.000 OA
ATOM     18  H12 UNL     1     -22.109  35.865 -10.121  0.00  0.00    +0.000 HD
ENDBRANCH   4  17
BRANCH   3  19
ATOM     19  O4  UNL     1     -23.601  37.116 -12.115  0.00  0.00    +0.000 OA
ATOM     20  H13 UNL     1     -24.064  36.572 -12.804  0.00  0.00    +0.000 HD
ENDBRANCH   3  19
BRANCH   2  21
ATOM     21  O5  UNL     1     -25.790  38.516 -11.575  0.00  0.00    +0.000 OA
ATOM     22  H14 UNL     1     -25.469  38.310 -12.490  0.00  0.00    +0.000 HD
ENDBRANCH   2  21
BRANCH   5  23
ATOM     23  C12 UNL     1     -23.343  35.805  -7.640  0.00  0.00    +0.000 C 
BRANCH  23  24
ATOM     24  O2  UNL     1     -22.297  36.260  -6.826  0.00  0.00    +0.000 OA
ATOM     25  H11 UNL     1     -22.143  35.548  -6.151  0.00  0.00    +0.000 HD
ENDBRANCH  23  24
ENDBRANCH   5  23
TORSDOF 8
ENDMDL
MODEL 8
REMARK VINA RESULT:      -3.0      1.397      1.534
REMARK  Name = .\Catechins.pdb
REMARK  8 active torsions:
REMARK  status: ('A' for Active; 'I' for Inactive)
REMARK    1  A    between atoms: C3_3  and  O7_19
REMARK    2  A    between atoms: C4_4  and  O6_18
REMARK    3  A    between atoms: C6_6  and  C7_7
REMARK    4  A    between atoms: C8_8  and  O5_17
REMARK    5  A    between atoms: C9_9  and  O4_16
REMARK    6  A    between atoms: C10_10  and  O3_15
REMARK    7  A    between atoms: C11_11  and  C12_13
REMARK    8  A    between atoms: C12_13  and  O2_14
REMARK                            x       y       z     vdW  Elec       q    Type
REMARK                         _______ _______ _______ _____ _____    ______ ____
ROOT
ATOM      1  C7  UNL     1     -27.496  37.766 -10.538  0.00  0.00    +0.000 C 
ATOM      2  C8  UNL     1     -28.191  38.386 -11.778  0.00  0.00    +0.000 C 
ATOM      3  C9  UNL     1     -29.725  38.139 -11.746  0.00  0.00    +0.000 C 
ATOM      4  C10 UNL     1     -30.042  36.824 -11.013  0.00  0.00    +0.000 C 
ATOM      5  C11 UNL     1     -29.423  36.841  -9.571  0.00  0.00    +0.000 C 
ATOM      6  O1  UNL     1     -28.376  37.796  -9.429  0.00  0.00    +0.000 OA
ENDROOT
BRANCH   1  12
ATOM      7  C1  UNL     1     -26.245  39.930 -10.106  0.00  0.00    +0.000 A 
ATOM      8  C2  UNL     1     -25.067  40.631  -9.832  0.00  0.00    +0.000 A 
ATOM      9  C3  UNL     1     -23.859  39.941  -9.665  0.00  0.00    +0.000 A 
ATOM     10  C4  UNL     1     -23.832  38.545  -9.779  0.00  0.00    +0.000 A 
ATOM     11  C5  UNL     1     -25.014  37.842 -10.053  0.00  0.00    +0.000 A 
ATOM     12  C6  UNL     1     -26.232  38.527 -10.205  0.00  0.00    +0.000 A 
BRANCH  10  13
ATOM     13  O6  UNL     1     -22.627  37.863  -9.620  0.00  0.00    +0.000 OA
ATOM     14  H15 UNL     1     -21.744  38.357  -9.547  0.00  0.00    +0.000 HD
ENDBRANCH  10  13
BRANCH   9  15
ATOM     15  O7  UNL     1     -22.683  40.635  -9.391  0.00  0.00    +0.000 OA
ATOM     16  H16 UNL     1     -22.587  41.212  -8.562  0.00  0.00    +0.000 HD
ENDBRANCH   9  15
ENDBRANCH   1  12
BRANCH   4  17
ATOM     17  O3  UNL     1     -31.432  36.611 -10.977  0.00  0.00    +0.000 OA
ATOM     18  H12 UNL     1     -31.579  35.630 -11.015  0.00  0.00    +0.000 HD
ENDBRANCH   4  17
BRANCH   3  19
ATOM     19  O4  UNL     1     -30.254  38.106 -13.046  0.00  0.00    +0.000 OA
ATOM     20  H13 UNL     1     -31.106  37.601 -12.993  0.00  0.00    +0.000 HD
ENDBRANCH   3  19
BRANCH   2  21
ATOM     21  O5  UNL     1     -27.608  37.897 -12.963  0.00  0.00    +0.000 OA
ATOM     22  H14 UNL     1     -26.842  38.485 -13.187  0.00  0.00    +0.000 HD
ENDBRANCH   2  21
BRANCH   5  23
ATOM     23  C12 UNL     1     -30.470  37.129  -8.484  0.00  0.00    +0.000 C 
BRANCH  23  24
ATOM     24  O2  UNL     1     -31.005  35.925  -8.010  0.00  0.00    +0.000 OA
ATOM     25  H11 UNL     1     -30.251  35.432  -7.593  0.00  0.00    +0.000 HD
ENDBRANCH  23  24
ENDBRANCH   5  23
TORSDOF 8
ENDMDL
MODEL 9
REMARK VINA RESULT:      -3.0      1.592      6.326
REMARK  Name = .\Catechins.pdb
REMARK  8 active torsions:
REMARK  status: ('A' for Active; 'I' for Inactive)
REMARK    1  A    between atoms: C3_3  and  O7_19
REMARK    2  A    between atoms: C4_4  and  O6_18
REMARK    3  A    between atoms: C6_6  and  C7_7
REMARK    4  A    between atoms: C8_8  and  O5_17
REMARK    5  A    between atoms: C9_9  and  O4_16
REMARK    6  A    between atoms: C10_10  and  O3_15
REMARK    7  A    between atoms: C11_11  and  C12_13
REMARK    8  A    between atoms: C12_13  and  O2_14
REMARK                            x       y       z     vdW  Elec       q    Type
REMARK                         _______ _______ _______ _____ _____    ______ ____
ROOT
ATOM      1  C7  UNL     1     -26.700  38.867  -9.852  0.00  0.00    +0.000 C 
ATOM      2  C8  UNL     1     -26.147  39.931 -10.835  0.00  0.00    +0.000 C 
ATOM      3  C9  UNL     1     -24.594  39.906 -10.876  0.00  0.00    +0.000 C 
ATOM      4  C10 UNL     1     -24.028  39.451  -9.520  0.00  0.00    +0.000 C 
ATOM      5  C11 UNL     1     -24.624  38.056  -9.122  0.00  0.00    +0.000 C 
ATOM      6  O1  UNL     1     -25.830  37.750  -9.814  0.00  0.00    +0.000 OA
ENDROOT
BRANCH   1  12
ATOM      7  C1  UNL     1     -28.256  37.629 -11.427  0.00  0.00    +0.000 A 
ATOM      8  C2  UNL     1     -29.538  37.249 -11.836  0.00  0.00    +0.000 A 
ATOM      9  C3  UNL     1     -30.662  37.665 -11.110  0.00  0.00    +0.000 A 
ATOM     10  C4  UNL     1     -30.500  38.469  -9.975  0.00  0.00    +0.000 A 
ATOM     11  C5  UNL     1     -29.214  38.850  -9.565  0.00  0.00    +0.000 A 
ATOM     12  C6  UNL     1     -28.081  38.421 -10.279  0.00  0.00    +0.000 A 
BRANCH  10  13
ATOM     13  O6  UNL     1     -31.621  38.888  -9.261  0.00  0.00    +0.000 OA
ATOM     14  H15 UNL     1     -31.848  39.870  -9.159  0.00  0.00    +0.000 HD
ENDBRANCH  10  13
BRANCH   9  15
ATOM     15  O7  UNL     1     -31.941  37.288 -11.514  0.00  0.00    +0.000 OA
ATOM     16  H16 UNL     1     -32.150  37.076 -12.483  0.00  0.00    +0.000 HD
ENDBRANCH   9  15
ENDBRANCH   1  12
BRANCH   4  17
ATOM     17  O3  UNL     1     -22.622  39.418  -9.567  0.00  0.00    +0.000 OA
ATOM     18  H12 UNL     1     -22.292  40.114  -8.940  0.00  0.00    +0.000 HD
ENDBRANCH   4  17
BRANCH   3  19
ATOM     19  O4  UNL     1     -24.082  41.169 -11.213  0.00  0.00    +0.000 OA
ATOM     20  H13 UNL     1     -24.651  41.839 -10.752  0.00  0.00    +0.000 HD
ENDBRANCH   3  19
BRANCH   2  21
ATOM     21  O5  UNL     1     -26.639  41.208 -10.503  0.00  0.00    +0.000 OA
ATOM     22  H14 UNL     1     -26.854  41.678 -11.350  0.00  0.00    +0.000 HD
ENDBRANCH   2  21
BRANCH   5  23
ATOM     23  C12 UNL     1     -23.639  36.902  -9.367  0.00  0.00    +0.000 C 
BRANCH  23  24
ATOM     24  O2  UNL     1     -24.311  35.823  -9.957  0.00  0.00    +0.000 OA
ATOM     25  H11 UNL     1     -24.635  36.148 -10.837  0.00  0.00    +0.000 HD
ENDBRANCH  23  24
ENDBRANCH   5  23
TORSDOF 8
ENDMDL
