MODEL 1
REMARK VINA RESULT:      -6.1      0.000      0.000
REMARK  Name = .\Catechins.pdb
REMARK  8 active torsions:
REMARK  status: ('A' for Active; 'I' for Inactive)
REMARK    1  A    between atoms: C3_3  and  O7_19
REMARK    2  A    between atoms: C4_4  and  O6_18
REMARK    3  A    between atoms: C6_6  and  C7_7
REMARK    4  A    between atoms: C8_8  and  O5_17
REMARK    5  A    between atoms: C9_9  and  O4_16
REMARK    6  A    between atoms: C10_10  and  O3_15
REMARK    7  A    between atoms: C11_11  and  C12_13
REMARK    8  A    between atoms: C12_13  and  O2_14
REMARK                            x       y       z     vdW  Elec       q    Type
REMARK                         _______ _______ _______ _____ _____    ______ ____
ROOT
ATOM      1  C7  UNL     1       1.703  39.279  40.153  0.00  0.00    +0.000 C 
ATOM      2  C8  UNL     1       2.216  40.075  38.923  0.00  0.00    +0.000 C 
ATOM      3  C9  UNL     1       2.855  39.129  37.869  0.00  0.00    +0.000 C 
ATOM      4  C10 UNL     1       3.472  37.898  38.554  0.00  0.00    +0.000 C 
ATOM      5  C11 UNL     1       2.393  37.160  39.422  0.00  0.00    +0.000 C 
ATOM      6  O1  UNL     1       1.282  37.989  39.748  0.00  0.00    +0.000 OA
ENDROOT
BRANCH   1  12
ATOM      7  C1  UNL     1      -0.604  40.331  40.075  0.00  0.00    +0.000 A 
ATOM      8  C2  UNL     1      -1.651  41.034  40.677  0.00  0.00    +0.000 A 
ATOM      9  C3  UNL     1      -1.554  41.434  42.016  0.00  0.00    +0.000 A 
ATOM     10  C4  UNL     1      -0.401  41.132  42.751  0.00  0.00    +0.000 A 
ATOM     11  C5  UNL     1       0.649  40.426  42.147  0.00  0.00    +0.000 A 
ATOM     12  C6  UNL     1       0.550  40.007  40.809  0.00  0.00    +0.000 A 
BRANCH  10  13
ATOM     13  O6  UNL     1      -0.305  41.538  44.081  0.00  0.00    +0.000 OA
ATOM     14  H15 UNL     1       0.377  42.227  44.377  0.00  0.00    +0.000 HD
ENDBRANCH  10  13
BRANCH   9  15
ATOM     15  O7  UNL     1      -2.596  42.134  42.620  0.00  0.00    +0.000 OA
ATOM     16  H16 UNL     1      -2.446  42.699  43.448  0.00  0.00    +0.000 HD
ENDBRANCH   9  15
ENDBRANCH   1  12
BRANCH   4  17
ATOM     17  O3  UNL     1       4.038  37.040  37.593  0.00  0.00    +0.000 OA
ATOM     18  H12 UNL     1       4.633  36.410  38.078  0.00  0.00    +0.000 HD
ENDBRANCH   4  17
BRANCH   3  19
ATOM     19  O4  UNL     1       3.832  39.804  37.119  0.00  0.00    +0.000 OA
ATOM     20  H13 UNL     1       3.593  39.678  36.164  0.00  0.00    +0.000 HD
ENDBRANCH   3  19
BRANCH   2  21
ATOM     21  O5  UNL     1       3.111  41.082  39.331  0.00  0.00    +0.000 OA
ATOM     22  H14 UNL     1       3.551  40.776  40.165  0.00  0.00    +0.000 HD
ENDBRANCH   2  21
BRANCH   5  23
ATOM     23  C12 UNL     1       1.849  35.897  38.737  0.00  0.00    +0.000 C 
BRANCH  23  24
ATOM     24  O2  UNL     1       1.447  36.202  37.430  0.00  0.00    +0.000 OA
ATOM     25  H11 UNL     1       0.721  36.873  37.514  0.00  0.00    +0.000 HD
ENDBRANCH  23  24
ENDBRANCH   5  23
TORSDOF 8
ENDMDL
MODEL 2
REMARK VINA RESULT:      -5.9      2.144      3.378
REMARK  Name = .\Catechins.pdb
REMARK  8 active torsions:
REMARK  status: ('A' for Active; 'I' for Inactive)
REMARK    1  A    between atoms: C3_3  and  O7_19
REMARK    2  A    between atoms: C4_4  and  O6_18
REMARK    3  A    between atoms: C6_6  and  C7_7
REMARK    4  A    between atoms: C8_8  and  O5_17
REMARK    5  A    between atoms: C9_9  and  O4_16
REMARK    6  A    between atoms: C10_10  and  O3_15
REMARK    7  A    between atoms: C11_11  and  C12_13
REMARK    8  A    between atoms: C12_13  and  O2_14
REMARK                            x       y       z     vdW  Elec       q    Type
REMARK                         _______ _______ _______ _____ _____    ______ ____
ROOT
ATOM      1  C7  UNL     1       2.372  38.229  39.511  0.00  0.00    +0.000 C 
ATOM      2  C8  UNL     1       1.733  36.823  39.364  0.00  0.00    +0.000 C 
ATOM      3  C9  UNL     1       2.711  35.709  39.830  0.00  0.00    +0.000 C 
ATOM      4  C10 UNL     1       4.168  36.141  39.595  0.00  0.00    +0.000 C 
ATOM      5  C11 UNL     1       4.455  37.506  40.314  0.00  0.00    +0.000 C 
ATOM      6  O1  UNL     1       3.268  38.237  40.608  0.00  0.00    +0.000 OA
ENDROOT
BRANCH   1  12
ATOM      7  C1  UNL     1       1.251  40.423  38.909  0.00  0.00    +0.000 A 
ATOM      8  C2  UNL     1       0.281  41.405  39.130  0.00  0.00    +0.000 A 
ATOM      9  C3  UNL     1      -0.644  41.260  40.173  0.00  0.00    +0.000 A 
ATOM     10  C4  UNL     1      -0.591  40.130  40.998  0.00  0.00    +0.000 A 
ATOM     11  C5  UNL     1       0.382  39.145  40.776  0.00  0.00    +0.000 A 
ATOM     12  C6  UNL     1       1.302  39.277  39.721  0.00  0.00    +0.000 A 
BRANCH  10  13
ATOM     13  O6  UNL     1      -1.508  39.993  42.039  0.00  0.00    +0.000 OA
ATOM     14  H15 UNL     1      -1.392  40.488  42.916  0.00  0.00    +0.000 HD
ENDBRANCH  10  13
BRANCH   9  15
ATOM     15  O7  UNL     1      -1.613  42.235  40.395  0.00  0.00    +0.000 OA
ATOM     16  H16 UNL     1      -2.549  42.150  40.015  0.00  0.00    +0.000 HD
ENDBRANCH   9  15
ENDBRANCH   1  12
BRANCH   4  17
ATOM     17  O3  UNL     1       5.050  35.133  40.030  0.00  0.00    +0.000 OA
ATOM     18  H12 UNL     1       5.862  35.585  40.378  0.00  0.00    +0.000 HD
ENDBRANCH   4  17
BRANCH   3  19
ATOM     19  O4  UNL     1       2.451  34.503  39.159  0.00  0.00    +0.000 OA
ATOM     20  H13 UNL     1       1.596  34.155  39.523  0.00  0.00    +0.000 HD
ENDBRANCH   3  19
BRANCH   2  21
ATOM     21  O5  UNL     1       1.300  36.617  38.040  0.00  0.00    +0.000 OA
ATOM     22  H14 UNL     1       0.351  36.899  37.986  0.00  0.00    +0.000 HD
ENDBRANCH   2  21
BRANCH   5  23
ATOM     23  C12 UNL     1       5.232  37.330  41.627  0.00  0.00    +0.000 C 
BRANCH  23  24
ATOM     24  O2  UNL     1       6.602  37.213  41.355  0.00  0.00    +0.000 OA
ATOM     25  H11 UNL     1       6.920  38.128  41.141  0.00  0.00    +0.000 HD
ENDBRANCH  23  24
ENDBRANCH   5  23
TORSDOF 8
ENDMDL
MODEL 3
REMARK VINA RESULT:      -5.8      2.190      6.137
REMARK  Name = .\Catechins.pdb
REMARK  8 active torsions:
REMARK  status: ('A' for Active; 'I' for Inactive)
REMARK    1  A    between atoms: C3_3  and  O7_19
REMARK    2  A    between atoms: C4_4  and  O6_18
REMARK    3  A    between atoms: C6_6  and  C7_7
REMARK    4  A    between atoms: C8_8  and  O5_17
REMARK    5  A    between atoms: C9_9  and  O4_16
REMARK    6  A    between atoms: C10_10  and  O3_15
REMARK    7  A    between atoms: C11_11  and  C12_13
REMARK    8  A    between atoms: C12_13  and  O2_14
REMARK                            x       y       z     vdW  Elec       q    Type
REMARK                         _______ _______ _______ _____ _____    ______ ____
ROOT
ATOM      1  C7  UNL     1       1.855  39.308  40.762  0.00  0.00    +0.000 C 
ATOM      2  C8  UNL     1       0.507  38.931  41.432  0.00  0.00    +0.000 C 
ATOM      3  C9  UNL     1      -0.619  39.923  41.027  0.00  0.00    +0.000 C 
ATOM      4  C10 UNL     1      -0.032  41.317  40.745  0.00  0.00    +0.000 C 
ATOM      5  C11 UNL     1       1.087  41.225  39.649  0.00  0.00    +0.000 C 
ATOM      6  O1  UNL     1       1.614  39.910  39.503  0.00  0.00    +0.000 OA
ENDROOT
BRANCH   1  12
ATOM      7  C1  UNL     1       4.071  38.090  40.956  0.00  0.00    +0.000 A 
ATOM      8  C2  UNL     1       4.871  36.962  40.755  0.00  0.00    +0.000 A 
ATOM      9  C3  UNL     1       4.332  35.811  40.165  0.00  0.00    +0.000 A 
ATOM     10  C4  UNL     1       2.988  35.794  39.772  0.00  0.00    +0.000 A 
ATOM     11  C5  UNL     1       2.185  36.927  39.975  0.00  0.00    +0.000 A 
ATOM     12  C6  UNL     1       2.716  38.078  40.581  0.00  0.00    +0.000 A 
BRANCH  10  13
ATOM     13  O6  UNL     1       2.457  34.650  39.179  0.00  0.00    +0.000 OA
ATOM     14  H15 UNL     1       2.665  34.406  38.218  0.00  0.00    +0.000 HD
ENDBRANCH  10  13
BRANCH   9  15
ATOM     15  O7  UNL     1       5.126  34.684  39.964  0.00  0.00    +0.000 OA
ATOM     16  H16 UNL     1       5.018  33.851  40.531  0.00  0.00    +0.000 HD
ENDBRANCH   9  15
ENDBRANCH   1  12
BRANCH   4  17
ATOM     17  O3  UNL     1      -1.054  42.207  40.367  0.00  0.00    +0.000 OA
ATOM     18  H12 UNL     1      -0.740  43.123  40.586  0.00  0.00    +0.000 HD
ENDBRANCH   4  17
BRANCH   3  19
ATOM     19  O4  UNL     1      -1.598  40.006  42.030  0.00  0.00    +0.000 OA
ATOM     20  H13 UNL     1      -1.338  39.357  42.734  0.00  0.00    +0.000 HD
ENDBRANCH   3  19
BRANCH   2  21
ATOM     21  O5  UNL     1       0.658  38.857  42.830  0.00  0.00    +0.000 OA
ATOM     22  H14 UNL     1       1.620  38.713  43.021  0.00  0.00    +0.000 HD
ENDBRANCH   2  21
BRANCH   5  23
ATOM     23  C12 UNL     1       0.600  41.689  38.269  0.00  0.00    +0.000 C 
BRANCH  23  24
ATOM     24  O2  UNL     1       1.392  41.111  37.267  0.00  0.00    +0.000 OA
ATOM     25  H11 UNL     1       1.025  40.202  37.116  0.00  0.00    +0.000 HD
ENDBRANCH  23  24
ENDBRANCH   5  23
TORSDOF 8
ENDMDL
MODEL 4
REMARK VINA RESULT:      -5.8      1.993      2.535
REMARK  Name = .\Catechins.pdb
REMARK  8 active torsions:
REMARK  status: ('A' for Active; 'I' for Inactive)
REMARK    1  A    between atoms: C3_3  and  O7_19
REMARK    2  A    between atoms: C4_4  and  O6_18
REMARK    3  A    between atoms: C6_6  and  C7_7
REMARK    4  A    between atoms: C8_8  and  O5_17
REMARK    5  A    between atoms: C9_9  and  O4_16
REMARK    6  A    between atoms: C10_10  and  O3_15
REMARK    7  A    between atoms: C11_11  and  C12_13
REMARK    8  A    between atoms: C12_13  and  O2_14
REMARK                            x       y       z     vdW  Elec       q    Type
REMARK                         _______ _______ _______ _____ _____    ______ ____
ROOT
ATOM      1  C7  UNL     1       1.826  37.725  40.230  0.00  0.00    +0.000 C 
ATOM      2  C8  UNL     1       3.247  38.117  40.715  0.00  0.00    +0.000 C 
ATOM      3  C9  UNL     1       4.322  37.148  40.150  0.00  0.00    +0.000 C 
ATOM      4  C10 UNL     1       3.723  35.748  39.933  0.00  0.00    +0.000 C 
ATOM      5  C11 UNL     1       2.465  35.832  39.000  0.00  0.00    +0.000 C 
ATOM      6  O1  UNL     1       1.903  37.140  38.942  0.00  0.00    +0.000 OA
ENDROOT
BRANCH   1  12
ATOM      7  C1  UNL     1       1.096  39.916  39.182  0.00  0.00    +0.000 A 
ATOM      8  C2  UNL     1       0.287  41.056  39.164  0.00  0.00    +0.000 A 
ATOM      9  C3  UNL     1      -0.690  41.244  40.150  0.00  0.00    +0.000 A 
ATOM     10  C4  UNL     1      -0.851  40.288  41.161  0.00  0.00    +0.000 A 
ATOM     11  C5  UNL     1      -0.040  39.144  41.179  0.00  0.00    +0.000 A 
ATOM     12  C6  UNL     1       0.930  38.942  40.182  0.00  0.00    +0.000 A 
BRANCH  10  13
ATOM     13  O6  UNL     1      -1.819  40.482  42.145  0.00  0.00    +0.000 OA
ATOM     14  H15 UNL     1      -2.738  40.060  42.076  0.00  0.00    +0.000 HD
ENDBRANCH  10  13
BRANCH   9  15
ATOM     15  O7  UNL     1      -1.498  42.378  40.135  0.00  0.00    +0.000 OA
ATOM     16  H16 UNL     1      -1.522  43.024  40.915  0.00  0.00    +0.000 HD
ENDBRANCH   9  15
ENDBRANCH   1  12
BRANCH   4  17
ATOM     17  O3  UNL     1       4.698  34.878  39.409  0.00  0.00    +0.000 OA
ATOM     18  H12 UNL     1       4.451  34.696  38.465  0.00  0.00    +0.000 HD
ENDBRANCH   4  17
BRANCH   3  19
ATOM     19  O4  UNL     1       5.429  37.071  41.010  0.00  0.00    +0.000 OA
ATOM     20  H13 UNL     1       6.225  37.315  40.471  0.00  0.00    +0.000 HD
ENDBRANCH   3  19
BRANCH   2  21
ATOM     21  O5  UNL     1       3.285  38.175  42.122  0.00  0.00    +0.000 OA
ATOM     22  H14 UNL     1       3.365  39.128  42.382  0.00  0.00    +0.000 HD
ENDBRANCH   2  21
BRANCH   5  23
ATOM     23  C12 UNL     1       2.767  35.390  37.560  0.00  0.00    +0.000 C 
BRANCH  23  24
ATOM     24  O2  UNL     1       1.835  35.960  36.683  0.00  0.00    +0.000 OA
ATOM     25  H11 UNL     1       1.161  36.414  37.253  0.00  0.00    +0.000 HD
ENDBRANCH  23  24
ENDBRANCH   5  23
TORSDOF 8
ENDMDL
MODEL 5
REMARK VINA RESULT:      -5.7      1.942      5.928
REMARK  Name = .\Catechins.pdb
REMARK  8 active torsions:
REMARK  status: ('A' for Active; 'I' for Inactive)
REMARK    1  A    between atoms: C3_3  and  O7_19
REMARK    2  A    between atoms: C4_4  and  O6_18
REMARK    3  A    between atoms: C6_6  and  C7_7
REMARK    4  A    between atoms: C8_8  and  O5_17
REMARK    5  A    between atoms: C9_9  and  O4_16
REMARK    6  A    between atoms: C10_10  and  O3_15
REMARK    7  A    between atoms: C11_11  and  C12_13
REMARK    8  A    between atoms: C12_13  and  O2_14
REMARK                            x       y       z     vdW  Elec       q    Type
REMARK                         _______ _______ _______ _____ _____    ______ ____
ROOT
ATOM      1  C7  UNL     1       1.386  38.866  39.495  0.00  0.00    +0.000 C 
ATOM      2  C8  UNL     1       2.122  40.198  39.198  0.00  0.00    +0.000 C 
ATOM      3  C9  UNL     1       1.259  41.422  39.611  0.00  0.00    +0.000 C 
ATOM      4  C10 UNL     1      -0.238  41.092  39.484  0.00  0.00    +0.000 C 
ATOM      5  C11 UNL     1      -0.589  39.818  40.330  0.00  0.00    +0.000 C 
ATOM      6  O1  UNL     1       0.553  39.021  40.630  0.00  0.00    +0.000 OA
ENDROOT
BRANCH   1  12
ATOM      7  C1  UNL     1       3.619  38.026  40.356  0.00  0.00    +0.000 A 
ATOM      8  C2  UNL     1       4.551  37.003  40.553  0.00  0.00    +0.000 A 
ATOM      9  C3  UNL     1       4.265  35.698  40.130  0.00  0.00    +0.000 A 
ATOM     10  C4  UNL     1       3.043  35.421  39.503  0.00  0.00    +0.000 A 
ATOM     11  C5  UNL     1       2.108  36.449  39.307  0.00  0.00    +0.000 A 
ATOM     12  C6  UNL     1       2.383  37.756  39.744  0.00  0.00    +0.000 A 
BRANCH  10  13
ATOM     13  O6  UNL     1       2.766  34.124  39.077  0.00  0.00    +0.000 OA
ATOM     14  H15 UNL     1       2.708  33.890  38.092  0.00  0.00    +0.000 HD
ENDBRANCH  10  13
BRANCH   9  15
ATOM     15  O7  UNL     1       5.190  34.675  40.325  0.00  0.00    +0.000 OA
ATOM     16  H16 UNL     1       5.276  33.906  39.670  0.00  0.00    +0.000 HD
ENDBRANCH   9  15
ENDBRANCH   1  12
BRANCH   4  17
ATOM     17  O3  UNL     1      -1.014  42.200  39.871  0.00  0.00    +0.000 OA
ATOM     18  H12 UNL     1      -1.131  42.771  39.067  0.00  0.00    +0.000 HD
ENDBRANCH   4  17
BRANCH   3  19
ATOM     19  O4  UNL     1       1.574  42.544  38.827  0.00  0.00    +0.000 OA
ATOM     20  H13 UNL     1       1.269  43.340  39.335  0.00  0.00    +0.000 HD
ENDBRANCH   3  19
BRANCH   2  21
ATOM     21  O5  UNL     1       2.497  40.258  37.842  0.00  0.00    +0.000 OA
ATOM     22  H14 UNL     1       2.545  41.215  37.585  0.00  0.00    +0.000 HD
ENDBRANCH   2  21
BRANCH   5  23
ATOM     23  C12 UNL     1      -1.278  40.164  41.658  0.00  0.00    +0.000 C 
BRANCH  23  24
ATOM     24  O2  UNL     1      -0.338  40.678  42.561  0.00  0.00    +0.000 OA
ATOM     25  H11 UNL     1       0.240  39.914  42.821  0.00  0.00    +0.000 HD
ENDBRANCH  23  24
ENDBRANCH   5  23
TORSDOF 8
ENDMDL
MODEL 6
REMARK VINA RESULT:      -5.7      1.818      2.861
REMARK  Name = .\Catechins.pdb
REMARK  8 active torsions:
REMARK  status: ('A' for Active; 'I' for Inactive)
REMARK    1  A    between atoms: C3_3  and  O7_19
REMARK    2  A    between atoms: C4_4  and  O6_18
REMARK    3  A    between atoms: C6_6  and  C7_7
REMARK    4  A    between atoms: C8_8  and  O5_17
REMARK    5  A    between atoms: C9_9  and  O4_16
REMARK    6  A    between atoms: C10_10  and  O3_15
REMARK    7  A    between atoms: C11_11  and  C12_13
REMARK    8  A    between atoms: C12_13  and  O2_14
REMARK                            x       y       z     vdW  Elec       q    Type
REMARK                         _______ _______ _______ _____ _____    ______ ____
ROOT
ATOM      1  C7  UNL     1       1.261  37.461  40.228  0.00  0.00    +0.000 C 
ATOM      2  C8  UNL     1       2.205  36.973  41.358  0.00  0.00    +0.000 C 
ATOM      3  C9  UNL     1       3.388  36.145  40.785  0.00  0.00    +0.000 C 
ATOM      4  C10 UNL     1       2.963  35.421  39.496  0.00  0.00    +0.000 C 
ATOM      5  C11 UNL     1       2.409  36.450  38.450  0.00  0.00    +0.000 C 
ATOM      6  O1  UNL     1       2.004  37.680  39.043  0.00  0.00    +0.000 OA
ENDROOT
BRANCH   1  12
ATOM      7  C1  UNL     1      -0.253  39.434  39.727  0.00  0.00    +0.000 A 
ATOM      8  C2  UNL     1      -0.865  40.634  40.099  0.00  0.00    +0.000 A 
ATOM      9  C3  UNL     1      -0.659  41.163  41.380  0.00  0.00    +0.000 A 
ATOM     10  C4  UNL     1       0.168  40.489  42.287  0.00  0.00    +0.000 A 
ATOM     11  C5  UNL     1       0.782  39.285  41.914  0.00  0.00    +0.000 A 
ATOM     12  C6  UNL     1       0.565  38.740  40.637  0.00  0.00    +0.000 A 
BRANCH  10  13
ATOM     13  O6  UNL     1       0.377  41.024  43.558  0.00  0.00    +0.000 OA
ATOM     14  H15 UNL     1       0.034  41.944  43.808  0.00  0.00    +0.000 HD
ENDBRANCH  10  13
BRANCH   9  15
ATOM     15  O7  UNL     1      -1.269  42.359  41.755  0.00  0.00    +0.000 OA
ATOM     16  H16 UNL     1      -0.849  42.976  42.440  0.00  0.00    +0.000 HD
ENDBRANCH   9  15
ENDBRANCH   1  12
BRANCH   4  17
ATOM     17  O3  UNL     1       4.041  34.683  38.975  0.00  0.00    +0.000 OA
ATOM     18  H12 UNL     1       4.579  34.365  39.746  0.00  0.00    +0.000 HD
ENDBRANCH   4  17
BRANCH   3  19
ATOM     19  O4  UNL     1       3.853  35.216  41.729  0.00  0.00    +0.000 OA
ATOM     20  H13 UNL     1       3.675  34.315  41.353  0.00  0.00    +0.000 HD
ENDBRANCH   3  19
BRANCH   2  21
ATOM     21  O5  UNL     1       1.480  36.247  42.323  0.00  0.00    +0.000 OA
ATOM     22  H14 UNL     1       2.108  36.004  43.051  0.00  0.00    +0.000 HD
ENDBRANCH   2  21
BRANCH   5  23
ATOM     23  C12 UNL     1       3.428  36.777  37.348  0.00  0.00    +0.000 C 
BRANCH  23  24
ATOM     24  O2  UNL     1       3.479  38.162  37.144  0.00  0.00    +0.000 OA
ATOM     25  H11 UNL     1       3.655  38.566  38.034  0.00  0.00    +0.000 HD
ENDBRANCH  23  24
ENDBRANCH   5  23
TORSDOF 8
ENDMDL
MODEL 7
REMARK VINA RESULT:      -5.6      2.736      7.155
REMARK  Name = .\Catechins.pdb
REMARK  8 active torsions:
REMARK  status: ('A' for Active; 'I' for Inactive)
REMARK    1  A    between atoms: C3_3  and  O7_19
REMARK    2  A    between atoms: C4_4  and  O6_18
REMARK    3  A    between atoms: C6_6  and  C7_7
REMARK    4  A    between atoms: C8_8  and  O5_17
REMARK    5  A    between atoms: C9_9  and  O4_16
REMARK    6  A    between atoms: C10_10  and  O3_15
REMARK    7  A    between atoms: C11_11  and  C12_13
REMARK    8  A    between atoms: C12_13  and  O2_14
REMARK                            x       y       z     vdW  Elec       q    Type
REMARK                         _______ _______ _______ _____ _____    ______ ____
ROOT
ATOM      1  C7  UNL     1       2.742  36.631  38.698  0.00  0.00    +0.000 C 
ATOM      2  C8  UNL     1       3.575  37.836  38.185  0.00  0.00    +0.000 C 
ATOM      3  C9  UNL     1       3.228  39.133  38.967  0.00  0.00    +0.000 C 
ATOM      4  C10 UNL     1       1.767  39.098  39.446  0.00  0.00    +0.000 C 
ATOM      5  C11 UNL     1       1.506  37.811  40.305  0.00  0.00    +0.000 C 
ATOM      6  O1  UNL     1       2.471  36.788  40.079  0.00  0.00    +0.000 OA
ENDROOT
BRANCH   1  12
ATOM      7  C1  UNL     1       4.597  34.998  39.270  0.00  0.00    +0.000 A 
ATOM      8  C2  UNL     1       5.306  33.817  39.034  0.00  0.00    +0.000 A 
ATOM      9  C3  UNL     1       4.928  32.965  37.988  0.00  0.00    +0.000 A 
ATOM     10  C4  UNL     1       3.839  33.302  37.174  0.00  0.00    +0.000 A 
ATOM     11  C5  UNL     1       3.127  34.487  37.412  0.00  0.00    +0.000 A 
ATOM     12  C6  UNL     1       3.491  35.337  38.471  0.00  0.00    +0.000 A 
BRANCH  10  13
ATOM     13  O6  UNL     1       3.471  32.455  36.130  0.00  0.00    +0.000 OA
ATOM     14  H15 UNL     1       3.067  31.542  36.305  0.00  0.00    +0.000 HD
ENDBRANCH  10  13
BRANCH   9  15
ATOM     15  O7  UNL     1       5.631  31.787  37.750  0.00  0.00    +0.000 OA
ATOM     16  H16 UNL     1       5.458  30.946  38.289  0.00  0.00    +0.000 HD
ENDBRANCH   9  15
ENDBRANCH   1  12
BRANCH   4  17
ATOM     17  O3  UNL     1       1.462  40.269  40.164  0.00  0.00    +0.000 OA
ATOM     18  H12 UNL     1       2.180  40.926  39.970  0.00  0.00    +0.000 HD
ENDBRANCH   4  17
BRANCH   3  19
ATOM     19  O4  UNL     1       3.448  40.270  38.173  0.00  0.00    +0.000 OA
ATOM     20  H13 UNL     1       4.414  40.274  37.945  0.00  0.00    +0.000 HD
ENDBRANCH   3  19
BRANCH   2  21
ATOM     21  O5  UNL     1       3.396  38.000  36.798  0.00  0.00    +0.000 OA
ATOM     22  H14 UNL     1       4.234  38.382  36.430  0.00  0.00    +0.000 HD
ENDBRANCH   2  21
BRANCH   5  23
ATOM     23  C12 UNL     1       1.479  38.104  41.812  0.00  0.00    +0.000 C 
BRANCH  23  24
ATOM     24  O2  UNL     1       0.259  38.698  42.159  0.00  0.00    +0.000 OA
ATOM     25  H11 UNL     1      -0.226  38.030  42.711  0.00  0.00    +0.000 HD
ENDBRANCH  23  24
ENDBRANCH   5  23
TORSDOF 8
ENDMDL
MODEL 8
REMARK VINA RESULT:      -5.6      2.306      6.018
REMARK  Name = .\Catechins.pdb
REMARK  8 active torsions:
REMARK  status: ('A' for Active; 'I' for Inactive)
REMARK    1  A    between atoms: C3_3  and  O7_19
REMARK    2  A    between atoms: C4_4  and  O6_18
REMARK    3  A    between atoms: C6_6  and  C7_7
REMARK    4  A    between atoms: C8_8  and  O5_17
REMARK    5  A    between atoms: C9_9  and  O4_16
REMARK    6  A    between atoms: C10_10  and  O3_15
REMARK    7  A    between atoms: C11_11  and  C12_13
REMARK    8  A    between atoms: C12_13  and  O2_14
REMARK                            x       y       z     vdW  Elec       q    Type
REMARK                         _______ _______ _______ _____ _____    ______ ____
ROOT
ATOM      1  C7  UNL     1       1.420  39.688  41.627  0.00  0.00    +0.000 C 
ATOM      2  C8  UNL     1       0.049  40.317  41.267  0.00  0.00    +0.000 C 
ATOM      3  C9  UNL     1       0.081  41.863  41.423  0.00  0.00    +0.000 C 
ATOM      4  C10 UNL     1       1.077  42.272  42.521  0.00  0.00    +0.000 C 
ATOM      5  C11 UNL     1       2.499  41.687  42.211  0.00  0.00    +0.000 C 
ATOM      6  O1  UNL     1       2.462  40.591  41.303  0.00  0.00    +0.000 OA
ENDROOT
BRANCH   1  12
ATOM      7  C1  UNL     1       0.653  37.936  39.961  0.00  0.00    +0.000 A 
ATOM      8  C2  UNL     1       0.826  36.720  39.295  0.00  0.00    +0.000 A 
ATOM      9  C3  UNL     1       1.961  35.935  39.542  0.00  0.00    +0.000 A 
ATOM     10  C4  UNL     1       2.921  36.371  40.464  0.00  0.00    +0.000 A 
ATOM     11  C5  UNL     1       2.747  37.592  41.132  0.00  0.00    +0.000 A 
ATOM     12  C6  UNL     1       1.620  38.391  40.875  0.00  0.00    +0.000 A 
BRANCH  10  13
ATOM     13  O6  UNL     1       4.044  35.583  40.714  0.00  0.00    +0.000 OA
ATOM     14  H15 UNL     1       4.592  35.188  39.959  0.00  0.00    +0.000 HD
ENDBRANCH  10  13
BRANCH   9  15
ATOM     15  O7  UNL     1       2.137  34.723  38.879  0.00  0.00    +0.000 OA
ATOM     16  H16 UNL     1       3.030  34.463  38.477  0.00  0.00    +0.000 HD
ENDBRANCH   9  15
ENDBRANCH   1  12
BRANCH   4  17
ATOM     17  O3  UNL     1       1.111  43.673  42.650  0.00  0.00    +0.000 OA
ATOM     18  H12 UNL     1       2.053  43.956  42.520  0.00  0.00    +0.000 HD
ENDBRANCH   4  17
BRANCH   3  19
ATOM     19  O4  UNL     1      -1.198  42.362  41.722  0.00  0.00    +0.000 OA
ATOM     20  H13 UNL     1      -1.075  43.059  42.417  0.00  0.00    +0.000 HD
ENDBRANCH   3  19
BRANCH   2  21
ATOM     21  O5  UNL     1      -0.975  39.736  42.040  0.00  0.00    +0.000 OA
ATOM     22  H14 UNL     1      -1.661  39.385  41.416  0.00  0.00    +0.000 HD
ENDBRANCH   2  21
BRANCH   5  23
ATOM     23  C12 UNL     1       3.457  42.740  41.633  0.00  0.00    +0.000 C 
BRANCH  23  24
ATOM     24  O2  UNL     1       3.114  43.012  40.302  0.00  0.00    +0.000 OA
ATOM     25  H11 UNL     1       2.740  43.932  40.295  0.00  0.00    +0.000 HD
ENDBRANCH  23  24
ENDBRANCH   5  23
TORSDOF 8
ENDMDL
MODEL 9
REMARK VINA RESULT:      -5.6      1.856      6.185
REMARK  Name = .\Catechins.pdb
REMARK  8 active torsions:
REMARK  status: ('A' for Active; 'I' for Inactive)
REMARK    1  A    between atoms: C3_3  and  O7_19
REMARK    2  A    between atoms: C4_4  and  O6_18
REMARK    3  A    between atoms: C6_6  and  C7_7
REMARK    4  A    between atoms: C8_8  and  O5_17
REMARK    5  A    between atoms: C9_9  and  O4_16
REMARK    6  A    between atoms: C10_10  and  O3_15
REMARK    7  A    between atoms: C11_11  and  C12_13
REMARK    8  A    between atoms: C12_13  and  O2_14
REMARK                            x       y       z     vdW  Elec       q    Type
REMARK                         _______ _______ _______ _____ _____    ______ ____
ROOT
ATOM      1  C7  UNL     1       1.594  39.361  40.619  0.00  0.00    +0.000 C 
ATOM      2  C8  UNL     1       0.302  39.963  40.007  0.00  0.00    +0.000 C 
ATOM      3  C9  UNL     1       0.092  41.431  40.469  0.00  0.00    +0.000 C 
ATOM      4  C10 UNL     1       0.694  41.646  41.868  0.00  0.00    +0.000 C 
ATOM      5  C11 UNL     1       2.210  41.243  41.876  0.00  0.00    +0.000 C 
ATOM      6  O1  UNL     1       2.560  40.380  40.798  0.00  0.00    +0.000 OA
ENDROOT
BRANCH   1  12
ATOM      7  C1  UNL     1       3.036  38.609  38.672  0.00  0.00    +0.000 A 
ATOM      8  C2  UNL     1       3.523  37.614  37.820  0.00  0.00    +0.000 A 
ATOM      9  C3  UNL     1       3.124  36.281  37.992  0.00  0.00    +0.000 A 
ATOM     10  C4  UNL     1       2.231  35.949  39.018  0.00  0.00    +0.000 A 
ATOM     11  C5  UNL     1       1.744  36.948  39.873  0.00  0.00    +0.000 A 
ATOM     12  C6  UNL     1       2.153  38.283  39.717  0.00  0.00    +0.000 A 
BRANCH  10  13
ATOM     13  O6  UNL     1       1.831  34.624  39.181  0.00  0.00    +0.000 OA
ATOM     14  H15 UNL     1       2.092  34.088  40.000  0.00  0.00    +0.000 HD
ENDBRANCH  10  13
BRANCH   9  15
ATOM     15  O7  UNL     1       3.607  35.287  37.145  0.00  0.00    +0.000 OA
ATOM     16  H16 UNL     1       4.327  35.478  36.458  0.00  0.00    +0.000 HD
ENDBRANCH   9  15
ENDBRANCH   1  12
BRANCH   4  17
ATOM     17  O3  UNL     1       0.513  42.981  42.275  0.00  0.00    +0.000 OA
ATOM     18  H12 UNL     1      -0.285  43.327  41.796  0.00  0.00    +0.000 HD
ENDBRANCH   4  17
BRANCH   3  19
ATOM     19  O4  UNL     1      -1.272  41.764  40.474  0.00  0.00    +0.000 OA
ATOM     20  H13 UNL     1      -1.418  42.347  41.264  0.00  0.00    +0.000 HD
ENDBRANCH   3  19
BRANCH   2  21
ATOM     21  O5  UNL     1      -0.809  39.155  40.317  0.00  0.00    +0.000 OA
ATOM     22  H14 UNL     1      -1.586  39.503  39.808  0.00  0.00    +0.000 HD
ENDBRANCH   2  21
BRANCH   5  23
ATOM     23  C12 UNL     1       3.145  42.460  41.822  0.00  0.00    +0.000 C 
BRANCH  23  24
ATOM     24  O2  UNL     1       3.137  43.008  40.533  0.00  0.00    +0.000 OA
ATOM     25  H11 UNL     1       3.252  43.987  40.648  0.00  0.00    +0.000 HD
ENDBRANCH  23  24
ENDBRANCH   5  23
TORSDOF 8
ENDMDL
