MODEL 1
REMARK VINA RESULT:      -7.6      0.000      0.000
REMARK  Name = .\curcumin.pdb
REMARK  12 active torsions:
REMARK  status: ('A' for Active; 'I' for Inactive)
REMARK    1  A    between atoms: C1_1  and  O1_2
REMARK    2  A    between atoms: O1_2  and  C2_3
REMARK    3  A    between atoms: C4_5  and  O6_27
REMARK    4  A    between atoms: C7_8  and  C8_9
REMARK    5  A    between atoms: C9_10  and  C10_11
REMARK    6  A    between atoms: C10_11  and  C11_13
REMARK    7  A    between atoms: C11_13  and  C12_14
REMARK    8  A    between atoms: C12_14  and  C13_16
REMARK    9  A    between atoms: C14_17  and  C15_18
REMARK   10  A    between atoms: C17_20  and  O5_25
REMARK   11  A    between atoms: C18_21  and  O4_24
REMARK   12  A    between atoms: O5_25  and  C21_26
REMARK                            x       y       z     vdW  Elec       q    Type
REMARK                         _______ _______ _______ _____ _____    ______ ____
ROOT
ATOM      1  C11 UNL     1     -10.084  55.662  -9.888  0.00  0.00    +0.000 C 
ENDROOT
BRANCH   1   2
ATOM      2  C10 UNL     1      -8.816  56.427  -9.631  0.00  0.00    +0.000 C 
ATOM      3  O2  UNL     1      -8.877  57.553  -9.069  0.00  0.00    +0.000 OA
BRANCH   2   5
ATOM      4  C8  UNL     1      -6.829  56.238 -11.081  0.00  0.00    +0.000 C 
ATOM      5  C9  UNL     1      -7.513  55.840 -10.001  0.00  0.00    +0.000 C 
BRANCH   4  11
ATOM      6  C2  UNL     1      -5.359  54.542 -12.268  0.00  0.00    +0.000 A 
ATOM      7  C3  UNL     1      -4.065  54.063 -12.558  0.00  0.00    +0.000 A 
ATOM      8  C4  UNL     1      -2.934  54.724 -12.062  0.00  0.00    +0.000 A 
ATOM      9  C5  UNL     1      -3.085  55.869 -11.279  0.00  0.00    +0.000 A 
ATOM     10  C6  UNL     1      -4.360  56.348 -10.976  0.00  0.00    +0.000 A 
ATOM     11  C7  UNL     1      -5.505  55.682 -11.442  0.00  0.00    +0.000 A 
BRANCH   6  13
ATOM     12  C1  UNL     1      -6.646  52.532 -13.033  0.00  0.00    +0.000 C 
ATOM     13  O1  UNL     1      -6.504  53.930 -12.806  0.00  0.00    +0.000 OA
ENDBRANCH   6  13
BRANCH   8  14
ATOM     14  O6  UNL     1      -1.654  54.254 -12.351  0.00  0.00    +0.000 OA
ATOM     15  H20 UNL     1      -1.357  53.323 -12.082  0.00  0.00    +0.000 HD
ENDBRANCH   8  14
ENDBRANCH   4  11
ENDBRANCH   2   5
ENDBRANCH   1   2
BRANCH   1  16
ATOM     16  C12 UNL     1     -10.226  55.249 -11.335  0.00  0.00    +0.000 C 
ATOM     17  O3  UNL     1     -10.469  56.115 -12.217  0.00  0.00    +0.000 OA
BRANCH  16  18
ATOM     18  C13 UNL     1     -10.088  53.840 -11.764  0.00  0.00    +0.000 C 
ATOM     19  C14 UNL     1     -10.928  52.866 -11.380  0.00  0.00    +0.000 C 
BRANCH  19  20
ATOM     20  C15 UNL     1     -10.800  51.454 -11.818  0.00  0.00    +0.000 A 
ATOM     21  C16 UNL     1     -10.081  51.084 -12.974  0.00  0.00    +0.000 A 
ATOM     22  C17 UNL     1      -9.974  49.730 -13.349  0.00  0.00    +0.000 A 
ATOM     23  C18 UNL     1     -10.580  48.746 -12.556  0.00  0.00    +0.000 A 
ATOM     24  C19 UNL     1     -11.278  49.109 -11.398  0.00  0.00    +0.000 A 
ATOM     25  C20 UNL     1     -11.382  50.451 -11.029  0.00  0.00    +0.000 A 
BRANCH  23  26
ATOM     26  O4  UNL     1     -10.480  47.406 -12.924  0.00  0.00    +0.000 OA
ATOM     27  H16 UNL     1      -9.757  46.803 -12.543  0.00  0.00    +0.000 HD
ENDBRANCH  23  26
BRANCH  22  28
ATOM     28  O5  UNL     1      -9.274  49.323 -14.496  0.00  0.00    +0.000 OA
ATOM     29  C21 UNL     1      -8.735  50.211 -15.470  0.00  0.00    +0.000 C 
ENDBRANCH  22  28
ENDBRANCH  19  20
ENDBRANCH  16  18
ENDBRANCH   1  16
TORSDOF 10
ENDMDL
MODEL 2
REMARK VINA RESULT:      -7.5      1.222      6.821
REMARK  Name = .\curcumin.pdb
REMARK  12 active torsions:
REMARK  status: ('A' for Active; 'I' for Inactive)
REMARK    1  A    between atoms: C1_1  and  O1_2
REMARK    2  A    between atoms: O1_2  and  C2_3
REMARK    3  A    between atoms: C4_5  and  O6_27
REMARK    4  A    between atoms: C7_8  and  C8_9
REMARK    5  A    between atoms: C9_10  and  C10_11
REMARK    6  A    between atoms: C10_11  and  C11_13
REMARK    7  A    between atoms: C11_13  and  C12_14
REMARK    8  A    between atoms: C12_14  and  C13_16
REMARK    9  A    between atoms: C14_17  and  C15_18
REMARK   10  A    between atoms: C17_20  and  O5_25
REMARK   11  A    between atoms: C18_21  and  O4_24
REMARK   12  A    between atoms: O5_25  and  C21_26
REMARK                            x       y       z     vdW  Elec       q    Type
REMARK                         _______ _______ _______ _____ _____    ______ ____
ROOT
ATOM      1  C11 UNL     1     -10.087  55.639  -9.659  0.00  0.00    +0.000 C 
ENDROOT
BRANCH   1   2
ATOM      2  C10 UNL     1     -10.450  55.438 -11.104  0.00  0.00    +0.000 C 
ATOM      3  O2  UNL     1     -10.482  56.434 -11.876  0.00  0.00    +0.000 OA
BRANCH   2   5
ATOM      4  C8  UNL     1      -9.794  53.347 -12.235  0.00  0.00    +0.000 C 
ATOM      5  C9  UNL     1     -10.726  54.080 -11.613  0.00  0.00    +0.000 C 
BRANCH   4  11
ATOM      6  C2  UNL     1      -9.733  51.557 -14.034  0.00  0.00    +0.000 A 
ATOM      7  C3  UNL     1     -10.015  50.232 -14.425  0.00  0.00    +0.000 A 
ATOM      8  C4  UNL     1     -10.571  49.324 -13.516  0.00  0.00    +0.000 A 
ATOM      9  C5  UNL     1     -10.844  49.729 -12.208  0.00  0.00    +0.000 A 
ATOM     10  C6  UNL     1     -10.579  51.039 -11.810  0.00  0.00    +0.000 A 
ATOM     11  C7  UNL     1     -10.048  51.970 -12.717  0.00  0.00    +0.000 A 
BRANCH   6  13
ATOM     12  C1  UNL     1      -7.740  52.448 -15.266  0.00  0.00    +0.000 C 
ATOM     13  O1  UNL     1      -9.119  52.465 -14.913  0.00  0.00    +0.000 OA
ENDBRANCH   6  13
BRANCH   8  14
ATOM     14  O6  UNL     1     -10.847  48.013 -13.900  0.00  0.00    +0.000 OA
ATOM     15  H20 UNL     1     -11.788  47.713 -14.125  0.00  0.00    +0.000 HD
ENDBRANCH   8  14
ENDBRANCH   4  11
ENDBRANCH   2   5
ENDBRANCH   1   2
BRANCH   1  16
ATOM     16  C12 UNL     1      -8.826  56.454  -9.488  0.00  0.00    +0.000 C 
ATOM     17  O3  UNL     1      -8.889  57.619  -9.012  0.00  0.00    +0.000 OA
BRANCH  16  18
ATOM     18  C13 UNL     1      -7.497  55.928  -9.867  0.00  0.00    +0.000 C 
ATOM     19  C14 UNL     1      -6.921  56.163 -11.057  0.00  0.00    +0.000 C 
BRANCH  19  20
ATOM     20  C15 UNL     1      -5.582  55.647 -11.434  0.00  0.00    +0.000 A 
ATOM     21  C16 UNL     1      -5.347  54.972 -12.650  0.00  0.00    +0.000 A 
ATOM     22  C17 UNL     1      -4.057  54.507 -12.974  0.00  0.00    +0.000 A 
ATOM     23  C18 UNL     1      -3.000  54.731 -12.081  0.00  0.00    +0.000 A 
ATOM     24  C19 UNL     1      -3.226  55.416 -10.883  0.00  0.00    +0.000 A 
ATOM     25  C20 UNL     1      -4.506  55.876 -10.564  0.00  0.00    +0.000 A 
BRANCH  23  26
ATOM     26  O4  UNL     1      -1.723  54.271 -12.397  0.00  0.00    +0.000 OA
ATOM     27  H16 UNL     1      -1.214  54.624 -13.200  0.00  0.00    +0.000 HD
ENDBRANCH  23  26
BRANCH  22  28
ATOM     28  O5  UNL     1      -3.785  53.825 -14.171  0.00  0.00    +0.000 OA
ATOM     29  C21 UNL     1      -4.064  52.447 -14.396  0.00  0.00    +0.000 C 
ENDBRANCH  22  28
ENDBRANCH  19  20
ENDBRANCH  16  18
ENDBRANCH   1  16
TORSDOF 10
ENDMDL
MODEL 3
REMARK VINA RESULT:      -7.2      2.279      4.871
REMARK  Name = .\curcumin.pdb
REMARK  12 active torsions:
REMARK  status: ('A' for Active; 'I' for Inactive)
REMARK    1  A    between atoms: C1_1  and  O1_2
REMARK    2  A    between atoms: O1_2  and  C2_3
REMARK    3  A    between atoms: C4_5  and  O6_27
REMARK    4  A    between atoms: C7_8  and  C8_9
REMARK    5  A    between atoms: C9_10  and  C10_11
REMARK    6  A    between atoms: C10_11  and  C11_13
REMARK    7  A    between atoms: C11_13  and  C12_14
REMARK    8  A    between atoms: C12_14  and  C13_16
REMARK    9  A    between atoms: C14_17  and  C15_18
REMARK   10  A    between atoms: C17_20  and  O5_25
REMARK   11  A    between atoms: C18_21  and  O4_24
REMARK   12  A    between atoms: O5_25  and  C21_26
REMARK                            x       y       z     vdW  Elec       q    Type
REMARK                         _______ _______ _______ _____ _____    ______ ____
ROOT
ATOM      1  C11 UNL     1      -5.327  51.969 -16.040  0.00  0.00    +0.000 C 
ENDROOT
BRANCH   1   2
ATOM      2  C10 UNL     1      -5.336  53.472 -16.052  0.00  0.00    +0.000 C 
ATOM      3  O2  UNL     1      -5.812  54.078 -17.050  0.00  0.00    +0.000 OA
BRANCH   2   5
ATOM      4  C8  UNL     1      -5.423  54.169 -13.688  0.00  0.00    +0.000 C 
ATOM      5  C9  UNL     1      -4.829  54.222 -14.887  0.00  0.00    +0.000 C 
BRANCH   4  11
ATOM      6  C2  UNL     1      -5.749  55.560 -11.590  0.00  0.00    +0.000 A 
ATOM      7  C3  UNL     1      -5.179  56.233 -10.490  0.00  0.00    +0.000 A 
ATOM      8  C4  UNL     1      -3.794  56.213 -10.282  0.00  0.00    +0.000 A 
ATOM      9  C5  UNL     1      -2.969  55.516 -11.167  0.00  0.00    +0.000 A 
ATOM     10  C6  UNL     1      -3.519  54.854 -12.265  0.00  0.00    +0.000 A 
ATOM     11  C7  UNL     1      -4.903  54.888 -12.503  0.00  0.00    +0.000 A 
BRANCH   6  13
ATOM     12  C1  UNL     1      -8.105  55.939 -10.822  0.00  0.00    +0.000 C 
ATOM     13  O1  UNL     1      -7.141  55.517 -11.780  0.00  0.00    +0.000 OA
ENDBRANCH   6  13
BRANCH   8  14
ATOM     14  O6  UNL     1      -3.229  56.875  -9.194  0.00  0.00    +0.000 OA
ATOM     15  H20 UNL     1      -3.472  56.632  -8.241  0.00  0.00    +0.000 HD
ENDBRANCH   8  14
ENDBRANCH   4  11
ENDBRANCH   2   5
ENDBRANCH   1   2
BRANCH   1  16
ATOM     16  C12 UNL     1      -6.720  51.383 -16.074  0.00  0.00    +0.000 C 
ATOM     17  O3  UNL     1      -7.128  50.787 -17.107  0.00  0.00    +0.000 OA
BRANCH  16  18
ATOM     18  C13 UNL     1      -7.640  51.483 -14.921  0.00  0.00    +0.000 C 
ATOM     19  C14 UNL     1      -8.559  52.452 -14.791  0.00  0.00    +0.000 C 
BRANCH  19  20
ATOM     20  C15 UNL     1      -9.491  52.548 -13.641  0.00  0.00    +0.000 A 
ATOM     21  C16 UNL     1      -9.891  51.420 -12.895  0.00  0.00    +0.000 A 
ATOM     22  C17 UNL     1     -10.770  51.557 -11.803  0.00  0.00    +0.000 A 
ATOM     23  C18 UNL     1     -11.239  52.830 -11.452  0.00  0.00    +0.000 A 
ATOM     24  C19 UNL     1     -10.830  53.954 -12.178  0.00  0.00    +0.000 A 
ATOM     25  C20 UNL     1      -9.958  53.815 -13.260  0.00  0.00    +0.000 A 
BRANCH  23  26
ATOM     26  O4  UNL     1     -12.111  52.970 -10.374  0.00  0.00    +0.000 OA
ATOM     27  H16 UNL     1     -12.405  53.883 -10.043  0.00  0.00    +0.000 HD
ENDBRANCH  23  26
BRANCH  22  28
ATOM     28  O5  UNL     1     -11.196  50.456 -11.041  0.00  0.00    +0.000 OA
ATOM     29  C21 UNL     1     -11.156  49.104 -11.485  0.00  0.00    +0.000 C 
ENDBRANCH  22  28
ENDBRANCH  19  20
ENDBRANCH  16  18
ENDBRANCH   1  16
TORSDOF 10
ENDMDL
MODEL 4
REMARK VINA RESULT:      -7.1      1.276      2.624
REMARK  Name = .\curcumin.pdb
REMARK  12 active torsions:
REMARK  status: ('A' for Active; 'I' for Inactive)
REMARK    1  A    between atoms: C1_1  and  O1_2
REMARK    2  A    between atoms: O1_2  and  C2_3
REMARK    3  A    between atoms: C4_5  and  O6_27
REMARK    4  A    between atoms: C7_8  and  C8_9
REMARK    5  A    between atoms: C9_10  and  C10_11
REMARK    6  A    between atoms: C10_11  and  C11_13
REMARK    7  A    between atoms: C11_13  and  C12_14
REMARK    8  A    between atoms: C12_14  and  C13_16
REMARK    9  A    between atoms: C14_17  and  C15_18
REMARK   10  A    between atoms: C17_20  and  O5_25
REMARK   11  A    between atoms: C18_21  and  O4_24
REMARK   12  A    between atoms: O5_25  and  C21_26
REMARK                            x       y       z     vdW  Elec       q    Type
REMARK                         _______ _______ _______ _____ _____    ______ ____
ROOT
ATOM      1  C11 UNL     1     -10.049  55.967  -9.599  0.00  0.00    +0.000 C 
ENDROOT
BRANCH   1   2
ATOM      2  C10 UNL     1      -8.647  56.489  -9.458  0.00  0.00    +0.000 C 
ATOM      3  O2  UNL     1      -8.455  57.594  -8.883  0.00  0.00    +0.000 OA
BRANCH   2   5
ATOM      4  C8  UNL     1      -6.949  55.908 -11.150  0.00  0.00    +0.000 C 
ATOM      5  C9  UNL     1      -7.509  55.690  -9.953  0.00  0.00    +0.000 C 
BRANCH   4  11
ATOM      6  C2  UNL     1      -4.458  55.620 -11.544  0.00  0.00    +0.000 A 
ATOM      7  C3  UNL     1      -3.400  54.834 -12.047  0.00  0.00    +0.000 A 
ATOM      8  C4  UNL     1      -3.653  53.576 -12.609  0.00  0.00    +0.000 A 
ATOM      9  C5  UNL     1      -4.960  53.092 -12.669  0.00  0.00    +0.000 A 
ATOM     10  C6  UNL     1      -6.017  53.863 -12.184  0.00  0.00    +0.000 A 
ATOM     11  C7  UNL     1      -5.784  55.138 -11.642  0.00  0.00    +0.000 A 
BRANCH   6  13
ATOM     12  C1  UNL     1      -3.369  57.048  -9.795  0.00  0.00    +0.000 C 
ATOM     13  O1  UNL     1      -4.218  56.857 -10.922  0.00  0.00    +0.000 OA
ENDBRANCH   6  13
BRANCH   8  14
ATOM     14  O6  UNL     1      -2.609  52.797 -13.104  0.00  0.00    +0.000 OA
ATOM     15  H20 UNL     1      -2.043  52.218 -12.494  0.00  0.00    +0.000 HD
ENDBRANCH   8  14
ENDBRANCH   4  11
ENDBRANCH   2   5
ENDBRANCH   1   2
BRANCH   1  16
ATOM     16  C12 UNL     1     -10.406  55.653 -11.034  0.00  0.00    +0.000 C 
ATOM     17  O3  UNL     1     -10.613  56.590 -11.851  0.00  0.00    +0.000 OA
BRANCH  16  18
ATOM     18  C13 UNL     1     -10.526  54.263 -11.525  0.00  0.00    +0.000 C 
ATOM     19  C14 UNL     1      -9.746  53.751 -12.490  0.00  0.00    +0.000 C 
BRANCH  19  20
ATOM     20  C15 UNL     1      -9.855  52.354 -12.976  0.00  0.00    +0.000 A 
ATOM     21  C16 UNL     1     -10.523  51.349 -12.246  0.00  0.00    +0.000 A 
ATOM     22  C17 UNL     1     -10.613  50.036 -12.749  0.00  0.00    +0.000 A 
ATOM     23  C18 UNL     1     -10.042  49.735 -13.993  0.00  0.00    +0.000 A 
ATOM     24  C19 UNL     1      -9.394  50.734 -14.728  0.00  0.00    +0.000 A 
ATOM     25  C20 UNL     1      -9.307  52.034 -14.227  0.00  0.00    +0.000 A 
BRANCH  23  26
ATOM     26  O4  UNL     1     -10.126  48.437 -14.494  0.00  0.00    +0.000 OA
ATOM     27  H16 UNL     1     -11.016  48.026 -14.757  0.00  0.00    +0.000 HD
ENDBRANCH  23  26
BRANCH  22  28
ATOM     28  O5  UNL     1     -11.263  49.008 -12.047  0.00  0.00    +0.000 OA
ATOM     29  C21 UNL     1     -11.473  48.999 -10.639  0.00  0.00    +0.000 C 
ENDBRANCH  22  28
ENDBRANCH  19  20
ENDBRANCH  16  18
ENDBRANCH   1  16
TORSDOF 10
ENDMDL
MODEL 5
REMARK VINA RESULT:      -7.1      2.710      5.356
REMARK  Name = .\curcumin.pdb
REMARK  12 active torsions:
REMARK  status: ('A' for Active; 'I' for Inactive)
REMARK    1  A    between atoms: C1_1  and  O1_2
REMARK    2  A    between atoms: O1_2  and  C2_3
REMARK    3  A    between atoms: C4_5  and  O6_27
REMARK    4  A    between atoms: C7_8  and  C8_9
REMARK    5  A    between atoms: C9_10  and  C10_11
REMARK    6  A    between atoms: C10_11  and  C11_13
REMARK    7  A    between atoms: C11_13  and  C12_14
REMARK    8  A    between atoms: C12_14  and  C13_16
REMARK    9  A    between atoms: C14_17  and  C15_18
REMARK   10  A    between atoms: C17_20  and  O5_25
REMARK   11  A    between atoms: C18_21  and  O4_24
REMARK   12  A    between atoms: O5_25  and  C21_26
REMARK                            x       y       z     vdW  Elec       q    Type
REMARK                         _______ _______ _______ _____ _____    ______ ____
ROOT
ATOM      1  C11 UNL     1      -5.409  52.384 -17.103  0.00  0.00    +0.000 C 
ENDROOT
BRANCH   1   2
ATOM      2  C10 UNL     1      -4.949  53.810 -16.985  0.00  0.00    +0.000 C 
ATOM      3  O2  UNL     1      -4.714  54.472 -18.031  0.00  0.00    +0.000 OA
BRANCH   2   5
ATOM      4  C8  UNL     1      -4.579  53.715 -14.548  0.00  0.00    +0.000 C 
ATOM      5  C9  UNL     1      -4.814  54.433 -15.653  0.00  0.00    +0.000 C 
BRANCH   4  11
ATOM      6  C2  UNL     1      -3.185  54.269 -12.499  0.00  0.00    +0.000 A 
ATOM      7  C3  UNL     1      -3.100  54.870 -11.227  0.00  0.00    +0.000 A 
ATOM      8  C4  UNL     1      -4.198  55.551 -10.686  0.00  0.00    +0.000 A 
ATOM      9  C5  UNL     1      -5.386  55.641 -11.412  0.00  0.00    +0.000 A 
ATOM     10  C6  UNL     1      -5.487  55.043 -12.668  0.00  0.00    +0.000 A 
ATOM     11  C7  UNL     1      -4.406  54.332 -13.213  0.00  0.00    +0.000 A 
BRANCH   6  13
ATOM     12  C1  UNL     1      -0.728  53.799 -12.658  0.00  0.00    +0.000 C 
ATOM     13  O1  UNL     1      -2.077  53.634 -13.085  0.00  0.00    +0.000 OA
ENDBRANCH   6  13
BRANCH   8  14
ATOM     14  O6  UNL     1      -4.114  56.149  -9.430  0.00  0.00    +0.000 OA
ATOM     15  H20 UNL     1      -4.578  57.027  -9.228  0.00  0.00    +0.000 HD
ENDBRANCH   8  14
ENDBRANCH   4  11
ENDBRANCH   2   5
ENDBRANCH   1   2
BRANCH   1  16
ATOM     16  C12 UNL     1      -6.912  52.269 -17.206  0.00  0.00    +0.000 C 
ATOM     17  O3  UNL     1      -7.481  52.421 -18.321  0.00  0.00    +0.000 OA
BRANCH  16  18
ATOM     18  C13 UNL     1      -7.758  51.980 -16.028  0.00  0.00    +0.000 C 
ATOM     19  C14 UNL     1      -8.231  52.931 -15.207  0.00  0.00    +0.000 C 
BRANCH  19  20
ATOM     20  C15 UNL     1      -9.090  52.645 -14.032  0.00  0.00    +0.000 A 
ATOM     21  C16 UNL     1      -9.470  53.643 -13.111  0.00  0.00    +0.000 A 
ATOM     22  C17 UNL     1     -10.296  53.331 -12.014  0.00  0.00    +0.000 A 
ATOM     23  C18 UNL     1     -10.751  52.016 -11.848  0.00  0.00    +0.000 A 
ATOM     24  C19 UNL     1     -10.391  51.026 -12.769  0.00  0.00    +0.000 A 
ATOM     25  C20 UNL     1      -9.572  51.340 -13.856  0.00  0.00    +0.000 A 
BRANCH  23  26
ATOM     26  O4  UNL     1     -11.567  51.701 -10.762  0.00  0.00    +0.000 OA
ATOM     27  H16 UNL     1     -11.511  50.801 -10.299  0.00  0.00    +0.000 HD
ENDBRANCH  23  26
BRANCH  22  28
ATOM     28  O5  UNL     1     -10.689  54.297 -11.073  0.00  0.00    +0.000 OA
ATOM     29  C21 UNL     1     -10.239  55.648 -11.067  0.00  0.00    +0.000 C 
ENDBRANCH  22  28
ENDBRANCH  19  20
ENDBRANCH  16  18
ENDBRANCH   1  16
TORSDOF 10
ENDMDL
MODEL 6
REMARK VINA RESULT:      -7.0      2.473      4.775
REMARK  Name = .\curcumin.pdb
REMARK  12 active torsions:
REMARK  status: ('A' for Active; 'I' for Inactive)
REMARK    1  A    between atoms: C1_1  and  O1_2
REMARK    2  A    between atoms: O1_2  and  C2_3
REMARK    3  A    between atoms: C4_5  and  O6_27
REMARK    4  A    between atoms: C7_8  and  C8_9
REMARK    5  A    between atoms: C9_10  and  C10_11
REMARK    6  A    between atoms: C10_11  and  C11_13
REMARK    7  A    between atoms: C11_13  and  C12_14
REMARK    8  A    between atoms: C12_14  and  C13_16
REMARK    9  A    between atoms: C14_17  and  C15_18
REMARK   10  A    between atoms: C17_20  and  O5_25
REMARK   11  A    between atoms: C18_21  and  O4_24
REMARK   12  A    between atoms: O5_25  and  C21_26
REMARK                            x       y       z     vdW  Elec       q    Type
REMARK                         _______ _______ _______ _____ _____    ______ ____
ROOT
ATOM      1  C11 UNL     1      -5.548  52.839 -16.995  0.00  0.00    +0.000 C 
ENDROOT
BRANCH   1   2
ATOM      2  C10 UNL     1      -5.308  54.250 -16.535  0.00  0.00    +0.000 C 
ATOM      3  O2  UNL     1      -5.700  55.208 -17.253  0.00  0.00    +0.000 OA
BRANCH   2   5
ATOM      4  C8  UNL     1      -5.286  54.301 -14.069  0.00  0.00    +0.000 C 
ATOM      5  C9  UNL     1      -4.657  54.500 -15.234  0.00  0.00    +0.000 C 
BRANCH   4  11
ATOM      6  C2  UNL     1      -5.278  55.169 -11.683  0.00  0.00    +0.000 A 
ATOM      7  C3  UNL     1      -4.586  55.346 -10.468  0.00  0.00    +0.000 A 
ATOM      8  C4  UNL     1      -3.285  54.852 -10.311  0.00  0.00    +0.000 A 
ATOM      9  C5  UNL     1      -2.667  54.174 -11.363  0.00  0.00    +0.000 A 
ATOM     10  C6  UNL     1      -3.337  54.001 -12.574  0.00  0.00    +0.000 A 
ATOM     11  C7  UNL     1      -4.631  54.514 -12.758  0.00  0.00    +0.000 A 
BRANCH   6  13
ATOM     12  C1  UNL     1      -7.366  56.267 -10.835  0.00  0.00    +0.000 C 
ATOM     13  O1  UNL     1      -6.605  55.604 -11.839  0.00  0.00    +0.000 OA
ENDBRANCH   6  13
BRANCH   8  14
ATOM     14  O6  UNL     1      -2.600  55.023  -9.109  0.00  0.00    +0.000 OA
ATOM     15  H20 UNL     1      -1.974  55.805  -8.961  0.00  0.00    +0.000 HD
ENDBRANCH   8  14
ENDBRANCH   4  11
ENDBRANCH   2   5
ENDBRANCH   1   2
BRANCH   1  16
ATOM     16  C12 UNL     1      -7.018  52.494 -17.060  0.00  0.00    +0.000 C 
ATOM     17  O3  UNL     1      -7.562  52.259 -18.172  0.00  0.00    +0.000 OA
BRANCH  16  18
ATOM     18  C13 UNL     1      -7.859  52.422 -15.846  0.00  0.00    +0.000 C 
ATOM     19  C14 UNL     1      -8.321  51.269 -15.335  0.00  0.00    +0.000 C 
BRANCH  19  20
ATOM     20  C15 UNL     1      -9.155  51.193 -14.111  0.00  0.00    +0.000 A 
ATOM     21  C16 UNL     1      -9.595  52.342 -13.422  0.00  0.00    +0.000 A 
ATOM     22  C17 UNL     1     -10.395  52.225 -12.268  0.00  0.00    +0.000 A 
ATOM     23  C18 UNL     1     -10.763  50.952 -11.812  0.00  0.00    +0.000 A 
ATOM     24  C19 UNL     1     -10.343  49.810 -12.504  0.00  0.00    +0.000 A 
ATOM     25  C20 UNL     1      -9.551  49.930 -13.647  0.00  0.00    +0.000 A 
BRANCH  23  26
ATOM     26  O4  UNL     1     -11.552  50.830 -10.670  0.00  0.00    +0.000 OA
ATOM     27  H16 UNL     1     -12.270  50.118 -10.594  0.00  0.00    +0.000 HD
ENDBRANCH  23  26
BRANCH  22  28
ATOM     28  O5  UNL     1     -10.846  53.346 -11.552  0.00  0.00    +0.000 OA
ATOM     29  C21 UNL     1     -10.538  54.695 -11.887  0.00  0.00    +0.000 C 
ENDBRANCH  22  28
ENDBRANCH  19  20
ENDBRANCH  16  18
ENDBRANCH   1  16
TORSDOF 10
ENDMDL
MODEL 7
REMARK VINA RESULT:      -6.9      2.857      6.368
REMARK  Name = .\curcumin.pdb
REMARK  12 active torsions:
REMARK  status: ('A' for Active; 'I' for Inactive)
REMARK    1  A    between atoms: C1_1  and  O1_2
REMARK    2  A    between atoms: O1_2  and  C2_3
REMARK    3  A    between atoms: C4_5  and  O6_27
REMARK    4  A    between atoms: C7_8  and  C8_9
REMARK    5  A    between atoms: C9_10  and  C10_11
REMARK    6  A    between atoms: C10_11  and  C11_13
REMARK    7  A    between atoms: C11_13  and  C12_14
REMARK    8  A    between atoms: C12_14  and  C13_16
REMARK    9  A    between atoms: C14_17  and  C15_18
REMARK   10  A    between atoms: C17_20  and  O5_25
REMARK   11  A    between atoms: C18_21  and  O4_24
REMARK   12  A    between atoms: O5_25  and  C21_26
REMARK                            x       y       z     vdW  Elec       q    Type
REMARK                         _______ _______ _______ _____ _____    ______ ____
ROOT
ATOM      1  C11 UNL     1      -3.369  55.622 -11.876  0.00  0.00    +0.000 C 
ENDROOT
BRANCH   1   2
ATOM      2  C10 UNL     1      -4.266  55.777 -10.680  0.00  0.00    +0.000 C 
ATOM      3  O2  UNL     1      -3.862  56.437  -9.686  0.00  0.00    +0.000 OA
BRANCH   2   5
ATOM      4  C8  UNL     1      -6.546  55.553 -11.593  0.00  0.00    +0.000 C 
ATOM      5  C9  UNL     1      -5.621  55.192 -10.695  0.00  0.00    +0.000 C 
BRANCH   4  11
ATOM      6  C2  UNL     1      -9.014  55.530 -10.996  0.00  0.00    +0.000 A 
ATOM      7  C3  UNL     1     -10.267  54.888 -11.076  0.00  0.00    +0.000 A 
ATOM      8  C4  UNL     1     -10.415  53.705 -11.810  0.00  0.00    +0.000 A 
ATOM      9  C5  UNL     1      -9.317  53.157 -12.474  0.00  0.00    +0.000 A 
ATOM     10  C6  UNL     1      -8.069  53.776 -12.396  0.00  0.00    +0.000 A 
ATOM     11  C7  UNL     1      -7.897  54.948 -11.641  0.00  0.00    +0.000 A 
BRANCH   6  13
ATOM     12  C1  UNL     1      -8.820  56.890  -8.899  0.00  0.00    +0.000 C 
ATOM     13  O1  UNL     1      -8.858  56.749 -10.316  0.00  0.00    +0.000 OA
ENDBRANCH   6  13
BRANCH   8  14
ATOM     14  O6  UNL     1     -11.653  53.071 -11.893  0.00  0.00    +0.000 OA
ATOM     15  H20 UNL     1     -12.485  53.474 -11.477  0.00  0.00    +0.000 HD
ENDBRANCH   8  14
ENDBRANCH   4  11
ENDBRANCH   2   5
ENDBRANCH   1   2
BRANCH   1  16
ATOM     16  C12 UNL     1      -3.252  54.185 -12.329  0.00  0.00    +0.000 C 
ATOM     17  O3  UNL     1      -2.349  53.446 -11.854  0.00  0.00    +0.000 OA
BRANCH  16  18
ATOM     18  C13 UNL     1      -4.174  53.602 -13.327  0.00  0.00    +0.000 C 
ATOM     19  C14 UNL     1      -4.542  54.235 -14.452  0.00  0.00    +0.000 C 
BRANCH  19  20
ATOM     20  C15 UNL     1      -5.457  53.647 -15.461  0.00  0.00    +0.000 A 
ATOM     21  C16 UNL     1      -5.635  54.212 -16.741  0.00  0.00    +0.000 A 
ATOM     22  C17 UNL     1      -6.507  53.615 -17.673  0.00  0.00    +0.000 A 
ATOM     23  C18 UNL     1      -7.191  52.443 -17.324  0.00  0.00    +0.000 A 
ATOM     24  C19 UNL     1      -7.002  51.869 -16.061  0.00  0.00    +0.000 A 
ATOM     25  C20 UNL     1      -6.137  52.463 -15.140  0.00  0.00    +0.000 A 
BRANCH  23  26
ATOM     26  O4  UNL     1      -8.055  51.850 -18.242  0.00  0.00    +0.000 OA
ATOM     27  H16 UNL     1      -8.159  52.211 -19.184  0.00  0.00    +0.000 HD
ENDBRANCH  23  26
BRANCH  22  28
ATOM     28  O5  UNL     1      -6.715  54.152 -18.954  0.00  0.00    +0.000 OA
ATOM     29  C21 UNL     1      -7.536  55.282 -19.231  0.00  0.00    +0.000 C 
ENDBRANCH  22  28
ENDBRANCH  19  20
ENDBRANCH  16  18
ENDBRANCH   1  16
TORSDOF 10
ENDMDL
MODEL 8
REMARK VINA RESULT:      -6.8      2.366      7.979
REMARK  Name = .\curcumin.pdb
REMARK  12 active torsions:
REMARK  status: ('A' for Active; 'I' for Inactive)
REMARK    1  A    between atoms: C1_1  and  O1_2
REMARK    2  A    between atoms: O1_2  and  C2_3
REMARK    3  A    between atoms: C4_5  and  O6_27
REMARK    4  A    between atoms: C7_8  and  C8_9
REMARK    5  A    between atoms: C9_10  and  C10_11
REMARK    6  A    between atoms: C10_11  and  C11_13
REMARK    7  A    between atoms: C11_13  and  C12_14
REMARK    8  A    between atoms: C12_14  and  C13_16
REMARK    9  A    between atoms: C14_17  and  C15_18
REMARK   10  A    between atoms: C17_20  and  O5_25
REMARK   11  A    between atoms: C18_21  and  O4_24
REMARK   12  A    between atoms: O5_25  and  C21_26
REMARK                            x       y       z     vdW  Elec       q    Type
REMARK                         _______ _______ _______ _____ _____    ______ ____
ROOT
ATOM      1  C11 UNL     1      -5.477  52.009 -16.534  0.00  0.00    +0.000 C 
ENDROOT
BRANCH   1   2
ATOM      2  C10 UNL     1      -6.919  51.681 -16.805  0.00  0.00    +0.000 C 
ATOM      3  O2  UNL     1      -7.226  51.086 -17.873  0.00  0.00    +0.000 OA
BRANCH   2   5
ATOM      4  C8  UNL     1      -7.985  51.459 -14.592  0.00  0.00    +0.000 C 
ATOM      5  C9  UNL     1      -7.953  52.020 -15.807  0.00  0.00    +0.000 C 
BRANCH   4  11
ATOM      6  C2  UNL     1      -9.823  50.852 -12.950  0.00  0.00    +0.000 A 
ATOM      7  C3  UNL     1     -10.771  51.271 -11.993  0.00  0.00    +0.000 A 
ATOM      8  C4  UNL     1     -10.873  52.622 -11.636  0.00  0.00    +0.000 A 
ATOM      9  C5  UNL     1     -10.027  53.562 -12.225  0.00  0.00    +0.000 A 
ATOM     10  C6  UNL     1      -9.091  53.163 -13.180  0.00  0.00    +0.000 A 
ATOM     11  C7  UNL     1      -8.994  51.818 -13.570  0.00  0.00    +0.000 A 
BRANCH   6  13
ATOM     12  C1  UNL     1     -10.701  48.521 -13.228  0.00  0.00    +0.000 C 
ATOM     13  O1  UNL     1      -9.664  49.495 -13.277  0.00  0.00    +0.000 OA
ENDBRANCH   6  13
BRANCH   8  14
ATOM     14  O6  UNL     1     -11.806  53.037 -10.689  0.00  0.00    +0.000 OA
ATOM     15  H20 UNL     1     -12.709  52.585 -10.599  0.00  0.00    +0.000 HD
ENDBRANCH   8  14
ENDBRANCH   4  11
ENDBRANCH   2   5
ENDBRANCH   1   2
BRANCH   1  16
ATOM     16  C12 UNL     1      -5.219  53.498 -16.507  0.00  0.00    +0.000 C 
ATOM     17  O3  UNL     1      -5.323  54.175 -17.565  0.00  0.00    +0.000 OA
BRANCH  16  18
ATOM     18  C13 UNL     1      -4.841  54.205 -15.264  0.00  0.00    +0.000 C 
ATOM     19  C14 UNL     1      -5.343  53.897 -14.058  0.00  0.00    +0.000 C 
BRANCH  19  20
ATOM     20  C15 UNL     1      -4.957  54.596 -12.808  0.00  0.00    +0.000 A 
ATOM     21  C16 UNL     1      -5.884  54.888 -11.786  0.00  0.00    +0.000 A 
ATOM     22  C17 UNL     1      -5.473  55.545 -10.609  0.00  0.00    +0.000 A 
ATOM     23  C18 UNL     1      -4.126  55.899 -10.454  0.00  0.00    +0.000 A 
ATOM     24  C19 UNL     1      -3.200  55.594 -11.457  0.00  0.00    +0.000 A 
ATOM     25  C20 UNL     1      -3.610  54.943 -12.622  0.00  0.00    +0.000 A 
BRANCH  23  26
ATOM     26  O4  UNL     1      -3.714  56.550  -9.293  0.00  0.00    +0.000 OA
ATOM     27  H16 UNL     1      -3.054  57.319  -9.321  0.00  0.00    +0.000 HD
ENDBRANCH  23  26
BRANCH  22  28
ATOM     28  O5  UNL     1      -6.369  55.858  -9.574  0.00  0.00    +0.000 OA
ATOM     29  C21 UNL     1      -7.744  56.173  -9.765  0.00  0.00    +0.000 C 
ENDBRANCH  22  28
ENDBRANCH  19  20
ENDBRANCH  16  18
ENDBRANCH   1  16
TORSDOF 10
ENDMDL
MODEL 9
REMARK VINA RESULT:      -6.6      2.848      5.009
REMARK  Name = .\curcumin.pdb
REMARK  12 active torsions:
REMARK  status: ('A' for Active; 'I' for Inactive)
REMARK    1  A    between atoms: C1_1  and  O1_2
REMARK    2  A    between atoms: O1_2  and  C2_3
REMARK    3  A    between atoms: C4_5  and  O6_27
REMARK    4  A    between atoms: C7_8  and  C8_9
REMARK    5  A    between atoms: C9_10  and  C10_11
REMARK    6  A    between atoms: C10_11  and  C11_13
REMARK    7  A    between atoms: C11_13  and  C12_14
REMARK    8  A    between atoms: C12_14  and  C13_16
REMARK    9  A    between atoms: C14_17  and  C15_18
REMARK   10  A    between atoms: C17_20  and  O5_25
REMARK   11  A    between atoms: C18_21  and  O4_24
REMARK   12  A    between atoms: O5_25  and  C21_26
REMARK                            x       y       z     vdW  Elec       q    Type
REMARK                         _______ _______ _______ _____ _____    ______ ____
ROOT
ATOM      1  C11 UNL     1      -8.562  51.641 -14.313  0.00  0.00    +0.000 C 
ENDROOT
BRANCH   1   2
ATOM      2  C10 UNL     1      -7.327  51.209 -13.573  0.00  0.00    +0.000 C 
ATOM      3  O2  UNL     1      -6.966  50.003 -13.627  0.00  0.00    +0.000 OA
BRANCH   2   5
ATOM      4  C8  UNL     1      -6.372  53.461 -13.255  0.00  0.00    +0.000 C 
ATOM      5  C9  UNL     1      -6.531  52.202 -12.826  0.00  0.00    +0.000 C 
BRANCH   4  11
ATOM      6  C2  UNL     1      -6.234  55.465 -11.703  0.00  0.00    +0.000 A 
ATOM      7  C3  UNL     1      -5.438  56.406 -11.018  0.00  0.00    +0.000 A 
ATOM      8  C4  UNL     1      -4.040  56.347 -11.095  0.00  0.00    +0.000 A 
ATOM      9  C5  UNL     1      -3.428  55.345 -11.849  0.00  0.00    +0.000 A 
ATOM     10  C6  UNL     1      -4.204  54.413 -12.539  0.00  0.00    +0.000 A 
ATOM     11  C7  UNL     1      -5.606  54.475 -12.496  0.00  0.00    +0.000 A 
BRANCH   6  13
ATOM     12  C1  UNL     1      -8.366  56.188 -10.601  0.00  0.00    +0.000 C 
ATOM     13  O1  UNL     1      -7.634  55.471 -11.590  0.00  0.00    +0.000 OA
ENDBRANCH   6  13
BRANCH   8  14
ATOM     14  O6  UNL     1      -3.252  57.274 -10.416  0.00  0.00    +0.000 OA
ATOM     15  H20 UNL     1      -2.313  57.498 -10.723  0.00  0.00    +0.000 HD
ENDBRANCH   8  14
ENDBRANCH   4  11
ENDBRANCH   2   5
ENDBRANCH   1   2
BRANCH   1  16
ATOM     16  C12 UNL     1      -9.201  50.507 -15.081  0.00  0.00    +0.000 C 
ATOM     17  O3  UNL     1      -8.899  50.315 -16.290  0.00  0.00    +0.000 OA
BRANCH  16  18
ATOM     18  C13 UNL     1     -10.185  49.595 -14.458  0.00  0.00    +0.000 C 
ATOM     19  C14 UNL     1     -10.976  48.770 -15.161  0.00  0.00    +0.000 C 
BRANCH  19  20
ATOM     20  C15 UNL     1     -11.956  47.846 -14.538  0.00  0.00    +0.000 A 
ATOM     21  C16 UNL     1     -13.349  48.023 -14.665  0.00  0.00    +0.000 A 
ATOM     22  C17 UNL     1     -14.245  47.115 -14.065  0.00  0.00    +0.000 A 
ATOM     23  C18 UNL     1     -13.740  46.023 -13.347  0.00  0.00    +0.000 A 
ATOM     24  C19 UNL     1     -12.358  45.835 -13.234  0.00  0.00    +0.000 A 
ATOM     25  C20 UNL     1     -11.473  46.736 -13.830  0.00  0.00    +0.000 A 
BRANCH  23  26
ATOM     26  O4  UNL     1     -14.622  45.124 -12.750  0.00  0.00    +0.000 OA
ATOM     27  H16 UNL     1     -15.596  45.071 -13.028  0.00  0.00    +0.000 HD
ENDBRANCH  23  26
BRANCH  22  28
ATOM     28  O5  UNL     1     -15.638  47.262 -14.164  0.00  0.00    +0.000 OA
ATOM     29  C21 UNL     1     -16.416  46.846 -15.282  0.00  0.00    +0.000 C 
ENDBRANCH  22  28
ENDBRANCH  19  20
ENDBRANCH  16  18
ENDBRANCH   1  16
TORSDOF 10
ENDMDL
