MODEL 1
REMARK VINA RESULT:      -7.7      0.000      0.000
REMARK  Name = .\curcumin.pdb
REMARK  12 active torsions:
REMARK  status: ('A' for Active; 'I' for Inactive)
REMARK    1  A    between atoms: C1_1  and  O1_2
REMARK    2  A    between atoms: O1_2  and  C2_3
REMARK    3  A    between atoms: C4_5  and  O6_27
REMARK    4  A    between atoms: C7_8  and  C8_9
REMARK    5  A    between atoms: C9_10  and  C10_11
REMARK    6  A    between atoms: C10_11  and  C11_13
REMARK    7  A    between atoms: C11_13  and  C12_14
REMARK    8  A    between atoms: C12_14  and  C13_16
REMARK    9  A    between atoms: C14_17  and  C15_18
REMARK   10  A    between atoms: C17_20  and  O5_25
REMARK   11  A    between atoms: C18_21  and  O4_24
REMARK   12  A    between atoms: O5_25  and  C21_26
REMARK                            x       y       z     vdW  Elec       q    Type
REMARK                         _______ _______ _______ _____ _____    ______ ____
ROOT
ATOM      1  C11 UNL     1      -0.525  75.217  85.251  0.00  0.00    +0.000 C 
ENDROOT
BRANCH   1   2
ATOM      2  C10 UNL     1      -1.800  74.465  85.512  0.00  0.00    +0.000 C 
ATOM      3  O2  UNL     1      -1.747  73.335  86.069  0.00  0.00    +0.000 OA
BRANCH   2   5
ATOM      4  C8  UNL     1      -3.770  74.715  84.050  0.00  0.00    +0.000 C 
ATOM      5  C9  UNL     1      -3.099  75.068  85.153  0.00  0.00    +0.000 C 
BRANCH   4  11
ATOM      6  C2  UNL     1      -5.227  76.459  82.918  0.00  0.00    +0.000 A 
ATOM      7  C3  UNL     1      -6.518  76.951  82.634  0.00  0.00    +0.000 A 
ATOM      8  C4  UNL     1      -7.655  76.272  83.091  0.00  0.00    +0.000 A 
ATOM      9  C5  UNL     1      -7.512  75.096  83.828  0.00  0.00    +0.000 A 
ATOM     10  C6  UNL     1      -6.241  74.604  84.124  0.00  0.00    +0.000 A 
ATOM     11  C7  UNL     1      -5.090  75.287  83.699  0.00  0.00    +0.000 A 
BRANCH   6  13
ATOM     12  C1  UNL     1      -3.883  78.502  82.365  0.00  0.00    +0.000 C 
ATOM     13  O1  UNL     1      -4.077  77.092  82.418  0.00  0.00    +0.000 OA
ENDBRANCH   6  13
BRANCH   8  14
ATOM     14  O6  UNL     1      -8.931  76.755  82.808  0.00  0.00    +0.000 OA
ATOM     15  H20 UNL     1      -9.084  77.475  82.112  0.00  0.00    +0.000 HD
ENDBRANCH   8  14
ENDBRANCH   4  11
ENDBRANCH   2   5
ENDBRANCH   1   2
BRANCH   1  16
ATOM     16  C12 UNL     1      -0.402  75.662  83.812  0.00  0.00    +0.000 C 
ATOM     17  O3  UNL     1      -0.164  74.817  82.908  0.00  0.00    +0.000 OA
BRANCH  16  18
ATOM     18  C13 UNL     1      -0.552  77.079  83.416  0.00  0.00    +0.000 C 
ATOM     19  C14 UNL     1       0.379  78.016  83.656  0.00  0.00    +0.000 C 
BRANCH  19  20
ATOM     20  C15 UNL     1       0.236  79.435  83.248  0.00  0.00    +0.000 A 
ATOM     21  C16 UNL     1      -0.461  79.822  82.086  0.00  0.00    +0.000 A 
ATOM     22  C17 UNL     1      -0.582  81.183  81.741  0.00  0.00    +0.000 A 
ATOM     23  C18 UNL     1      -0.012  82.157  82.571  0.00  0.00    +0.000 A 
ATOM     24  C19 UNL     1       0.665  81.777  83.736  0.00  0.00    +0.000 A 
ATOM     25  C20 UNL     1       0.783  80.428  84.075  0.00  0.00    +0.000 A 
BRANCH  23  26
ATOM     26  O4  UNL     1      -0.127  83.504  82.233  0.00  0.00    +0.000 OA
ATOM     27  H16 UNL     1       0.202  84.237  82.852  0.00  0.00    +0.000 HD
ENDBRANCH  23  26
BRANCH  22  28
ATOM     28  O5  UNL     1      -1.263  81.606  80.587  0.00  0.00    +0.000 OA
ATOM     29  C21 UNL     1      -2.073  80.764  79.774  0.00  0.00    +0.000 C 
ENDBRANCH  22  28
ENDBRANCH  19  20
ENDBRANCH  16  18
ENDBRANCH   1  16
TORSDOF 10
ENDMDL
MODEL 2
REMARK VINA RESULT:      -7.6      1.198      6.691
REMARK  Name = .\curcumin.pdb
REMARK  12 active torsions:
REMARK  status: ('A' for Active; 'I' for Inactive)
REMARK    1  A    between atoms: C1_1  and  O1_2
REMARK    2  A    between atoms: O1_2  and  C2_3
REMARK    3  A    between atoms: C4_5  and  O6_27
REMARK    4  A    between atoms: C7_8  and  C8_9
REMARK    5  A    between atoms: C9_10  and  C10_11
REMARK    6  A    between atoms: C10_11  and  C11_13
REMARK    7  A    between atoms: C11_13  and  C12_14
REMARK    8  A    between atoms: C12_14  and  C13_16
REMARK    9  A    between atoms: C14_17  and  C15_18
REMARK   10  A    between atoms: C17_20  and  O5_25
REMARK   11  A    between atoms: C18_21  and  O4_24
REMARK   12  A    between atoms: O5_25  and  C21_26
REMARK                            x       y       z     vdW  Elec       q    Type
REMARK                         _______ _______ _______ _____ _____    ______ ____
ROOT
ATOM      1  C11 UNL     1      -0.460  75.213  85.416  0.00  0.00    +0.000 C 
ENDROOT
BRANCH   1   2
ATOM      2  C10 UNL     1      -0.144  75.487  83.972  0.00  0.00    +0.000 C 
ATOM      3  O2  UNL     1      -0.078  74.525  83.161  0.00  0.00    +0.000 OA
BRANCH   2   5
ATOM      4  C8  UNL     1      -0.984  77.655  83.148  0.00  0.00    +0.000 C 
ATOM      5  C9  UNL     1       0.043  76.876  83.510  0.00  0.00    +0.000 C 
BRANCH   4  11
ATOM      6  C2  UNL     1      -1.635  79.662  81.736  0.00  0.00    +0.000 A 
ATOM      7  C3  UNL     1      -1.403  81.003  81.368  0.00  0.00    +0.000 A 
ATOM      8  C4  UNL     1      -0.389  81.745  81.988  0.00  0.00    +0.000 A 
ATOM      9  C5  UNL     1       0.394  81.157  82.982  0.00  0.00    +0.000 A 
ATOM     10  C6  UNL     1       0.181  79.828  83.348  0.00  0.00    +0.000 A 
ATOM     11  C7  UNL     1      -0.811  79.061  82.718  0.00  0.00    +0.000 A 
BRANCH   6  13
ATOM     12  C1  UNL     1      -2.657  78.330  79.874  0.00  0.00    +0.000 C 
ATOM     13  O1  UNL     1      -2.686  78.919  81.170  0.00  0.00    +0.000 OA
ENDBRANCH   6  13
BRANCH   8  14
ATOM     14  O6  UNL     1      -0.160  83.072  81.629  0.00  0.00    +0.000 OA
ATOM     15  H20 UNL     1      -0.751  83.823  81.967  0.00  0.00    +0.000 HD
ENDBRANCH   8  14
ENDBRANCH   4  11
ENDBRANCH   2   5
ENDBRANCH   1   2
BRANCH   1  16
ATOM     16  C12 UNL     1      -1.754  74.451  85.590  0.00  0.00    +0.000 C 
ATOM     17  O3  UNL     1      -1.740  73.290  86.081  0.00  0.00    +0.000 OA
BRANCH  16  18
ATOM     18  C13 UNL     1      -3.059  75.025  85.198  0.00  0.00    +0.000 C 
ATOM     19  C14 UNL     1      -3.675  74.737  84.040  0.00  0.00    +0.000 C 
BRANCH  19  20
ATOM     20  C15 UNL     1      -4.990  75.302  83.650  0.00  0.00    +0.000 A 
ATOM     21  C16 UNL     1      -5.162  76.091  82.494  0.00  0.00    +0.000 A 
ATOM     22  C17 UNL     1      -6.431  76.600  82.155  0.00  0.00    +0.000 A 
ATOM     23  C18 UNL     1      -7.531  76.305  82.971  0.00  0.00    +0.000 A 
ATOM     24  C19 UNL     1      -7.368  75.508  84.109  0.00  0.00    +0.000 A 
ATOM     25  C20 UNL     1      -6.109  75.005  84.442  0.00  0.00    +0.000 A 
BRANCH  23  26
ATOM     26  O4  UNL     1      -8.789  76.808  82.641  0.00  0.00    +0.000 OA
ATOM     27  H16 UNL     1      -8.976  77.215  81.730  0.00  0.00    +0.000 HD
ENDBRANCH  23  26
BRANCH  22  28
ATOM     28  O5  UNL     1      -6.639  77.395  81.016  0.00  0.00    +0.000 OA
ATOM     29  C21 UNL     1      -6.270  77.021  79.692  0.00  0.00    +0.000 C 
ENDBRANCH  22  28
ENDBRANCH  19  20
ENDBRANCH  16  18
ENDBRANCH   1  16
TORSDOF 10
ENDMDL
MODEL 3
REMARK VINA RESULT:      -7.4      1.438      2.138
REMARK  Name = .\curcumin.pdb
REMARK  12 active torsions:
REMARK  status: ('A' for Active; 'I' for Inactive)
REMARK    1  A    between atoms: C1_1  and  O1_2
REMARK    2  A    between atoms: O1_2  and  C2_3
REMARK    3  A    between atoms: C4_5  and  O6_27
REMARK    4  A    between atoms: C7_8  and  C8_9
REMARK    5  A    between atoms: C9_10  and  C10_11
REMARK    6  A    between atoms: C10_11  and  C11_13
REMARK    7  A    between atoms: C11_13  and  C12_14
REMARK    8  A    between atoms: C12_14  and  C13_16
REMARK    9  A    between atoms: C14_17  and  C15_18
REMARK   10  A    between atoms: C17_20  and  O5_25
REMARK   11  A    between atoms: C18_21  and  O4_24
REMARK   12  A    between atoms: O5_25  and  C21_26
REMARK                            x       y       z     vdW  Elec       q    Type
REMARK                         _______ _______ _______ _____ _____    ______ ____
ROOT
ATOM      1  C11 UNL     1      -1.177  74.833  84.937  0.00  0.00    +0.000 C 
ENDROOT
BRANCH   1   2
ATOM      2  C10 UNL     1      -2.447  74.309  84.327  0.00  0.00    +0.000 C 
ATOM      3  O2  UNL     1      -2.543  73.080  84.064  0.00  0.00    +0.000 OA
BRANCH   2   5
ATOM      4  C8  UNL     1      -4.595  74.902  83.270  0.00  0.00    +0.000 C 
ATOM      5  C9  UNL     1      -3.579  75.224  84.080  0.00  0.00    +0.000 C 
BRANCH   4  11
ATOM      6  C2  UNL     1      -6.821  75.905  83.965  0.00  0.00    +0.000 A 
ATOM      7  C3  UNL     1      -7.897  76.769  83.674  0.00  0.00    +0.000 A 
ATOM      8  C4  UNL     1      -7.897  77.535  82.501  0.00  0.00    +0.000 A 
ATOM      9  C5  UNL     1      -6.823  77.449  81.615  0.00  0.00    +0.000 A 
ATOM     10  C6  UNL     1      -5.757  76.592  81.886  0.00  0.00    +0.000 A 
ATOM     11  C7  UNL     1      -5.753  75.795  83.042  0.00  0.00    +0.000 A 
BRANCH   6  13
ATOM     12  C1  UNL     1      -7.318  73.872  85.344  0.00  0.00    +0.000 C 
ATOM     13  O1  UNL     1      -6.773  75.175  85.164  0.00  0.00    +0.000 OA
ENDBRANCH   6  13
BRANCH   8  14
ATOM     14  O6  UNL     1      -8.958  78.392  82.214  0.00  0.00    +0.000 OA
ATOM     15  H20 UNL     1      -9.145  78.708  81.269  0.00  0.00    +0.000 HD
ENDBRANCH   8  14
ENDBRANCH   4  11
ENDBRANCH   2   5
ENDBRANCH   1   2
BRANCH   1  16
ATOM     16  C12 UNL     1      -0.221  75.379  83.901  0.00  0.00    +0.000 C 
ATOM     17  O3  UNL     1       0.513  74.593  83.245  0.00  0.00    +0.000 OA
BRANCH  16  18
ATOM     18  C13 UNL     1      -0.111  76.828  83.624  0.00  0.00    +0.000 C 
ATOM     19  C14 UNL     1      -1.048  77.526  82.963  0.00  0.00    +0.000 C 
BRANCH  19  20
ATOM     20  C15 UNL     1      -0.945  78.981  82.693  0.00  0.00    +0.000 A 
ATOM     21  C16 UNL     1      -1.965  79.704  82.041  0.00  0.00    +0.000 A 
ATOM     22  C17 UNL     1      -1.833  81.088  81.814  0.00  0.00    +0.000 A 
ATOM     23  C18 UNL     1      -0.678  81.749  82.254  0.00  0.00    +0.000 A 
ATOM     24  C19 UNL     1       0.328  81.039  82.919  0.00  0.00    +0.000 A 
ATOM     25  C20 UNL     1       0.193  79.668  83.142  0.00  0.00    +0.000 A 
BRANCH  23  26
ATOM     26  O4  UNL     1      -0.541  83.118  82.031  0.00  0.00    +0.000 OA
ATOM     27  H16 UNL     1       0.260  83.636  82.378  0.00  0.00    +0.000 HD
ENDBRANCH  23  26
BRANCH  22  28
ATOM     28  O5  UNL     1      -2.824  81.839  81.162  0.00  0.00    +0.000 OA
ATOM     29  C21 UNL     1      -3.679  81.333  80.142  0.00  0.00    +0.000 C 
ENDBRANCH  22  28
ENDBRANCH  19  20
ENDBRANCH  16  18
ENDBRANCH   1  16
TORSDOF 10
ENDMDL
MODEL 4
REMARK VINA RESULT:      -7.1      2.512      5.365
REMARK  Name = .\curcumin.pdb
REMARK  12 active torsions:
REMARK  status: ('A' for Active; 'I' for Inactive)
REMARK    1  A    between atoms: C1_1  and  O1_2
REMARK    2  A    between atoms: O1_2  and  C2_3
REMARK    3  A    between atoms: C4_5  and  O6_27
REMARK    4  A    between atoms: C7_8  and  C8_9
REMARK    5  A    between atoms: C9_10  and  C10_11
REMARK    6  A    between atoms: C10_11  and  C11_13
REMARK    7  A    between atoms: C11_13  and  C12_14
REMARK    8  A    between atoms: C12_14  and  C13_16
REMARK    9  A    between atoms: C14_17  and  C15_18
REMARK   10  A    between atoms: C17_20  and  O5_25
REMARK   11  A    between atoms: C18_21  and  O4_24
REMARK   12  A    between atoms: O5_25  and  C21_26
REMARK                            x       y       z     vdW  Elec       q    Type
REMARK                         _______ _______ _______ _____ _____    ______ ____
ROOT
ATOM      1  C11 UNL     1      -4.927  78.781  78.835  0.00  0.00    +0.000 C 
ENDROOT
BRANCH   1   2
ATOM      2  C10 UNL     1      -6.003  77.732  78.804  0.00  0.00    +0.000 C 
ATOM      3  O2  UNL     1      -6.644  77.537  77.737  0.00  0.00    +0.000 OA
BRANCH   2   5
ATOM      4  C8  UNL     1      -6.172  77.413  81.244  0.00  0.00    +0.000 C 
ATOM      5  C9  UNL     1      -6.273  76.917  80.005  0.00  0.00    +0.000 C 
BRANCH   4  11
ATOM      6  C2  UNL     1      -7.641  76.823  83.229  0.00  0.00    +0.000 A 
ATOM      7  C3  UNL     1      -7.856  76.032  84.376  0.00  0.00    +0.000 A 
ATOM      8  C4  UNL     1      -6.944  75.030  84.731  0.00  0.00    +0.000 A 
ATOM      9  C5  UNL     1      -5.815  74.807  83.941  0.00  0.00    +0.000 A 
ATOM     10  C6  UNL     1      -5.585  75.588  82.808  0.00  0.00    +0.000 A 
ATOM     11  C7  UNL     1      -6.475  76.615  82.454  0.00  0.00    +0.000 A 
BRANCH   6  13
ATOM     12  C1  UNL     1      -9.921  77.516  82.450  0.00  0.00    +0.000 C 
ATOM     13  O1  UNL     1      -8.575  77.791  82.822  0.00  0.00    +0.000 OA
ENDBRANCH   6  13
BRANCH   8  14
ATOM     14  O6  UNL     1      -7.156  74.245  85.862  0.00  0.00    +0.000 OA
ATOM     15  H20 UNL     1      -6.679  73.360  85.991  0.00  0.00    +0.000 HD
ENDBRANCH   8  14
ENDBRANCH   4  11
ENDBRANCH   2   5
ENDBRANCH   1   2
BRANCH   1  16
ATOM     16  C12 UNL     1      -3.562  78.216  78.514  0.00  0.00    +0.000 C 
ATOM     17  O3  UNL     1      -3.315  77.784  77.356  0.00  0.00    +0.000 OA
BRANCH  16  18
ATOM     18  C13 UNL     1      -2.485  78.150  79.525  0.00  0.00    +0.000 C 
ATOM     19  C14 UNL     1      -2.708  78.210  80.847  0.00  0.00    +0.000 C 
BRANCH  19  20
ATOM     20  C15 UNL     1      -1.630  78.132  81.864  0.00  0.00    +0.000 A 
ATOM     21  C16 UNL     1      -1.288  76.927  82.511  0.00  0.00    +0.000 A 
ATOM     22  C17 UNL     1      -0.250  76.894  83.464  0.00  0.00    +0.000 A 
ATOM     23  C18 UNL     1       0.453  78.070  83.757  0.00  0.00    +0.000 A 
ATOM     24  C19 UNL     1       0.128  79.264  83.103  0.00  0.00    +0.000 A 
ATOM     25  C20 UNL     1      -0.901  79.293  82.159  0.00  0.00    +0.000 A 
BRANCH  23  26
ATOM     26  O4  UNL     1       1.479  78.043  84.700  0.00  0.00    +0.000 OA
ATOM     27  H16 UNL     1       1.296  77.854  85.679  0.00  0.00    +0.000 HD
ENDBRANCH  23  26
BRANCH  22  28
ATOM     28  O5  UNL     1       0.115  75.715  84.134  0.00  0.00    +0.000 OA
ATOM     29  C21 UNL     1      -0.613  75.144  85.216  0.00  0.00    +0.000 C 
ENDBRANCH  22  28
ENDBRANCH  19  20
ENDBRANCH  16  18
ENDBRANCH   1  16
TORSDOF 10
ENDMDL
MODEL 5
REMARK VINA RESULT:      -7.0      1.439      6.735
REMARK  Name = .\curcumin.pdb
REMARK  12 active torsions:
REMARK  status: ('A' for Active; 'I' for Inactive)
REMARK    1  A    between atoms: C1_1  and  O1_2
REMARK    2  A    between atoms: O1_2  and  C2_3
REMARK    3  A    between atoms: C4_5  and  O6_27
REMARK    4  A    between atoms: C7_8  and  C8_9
REMARK    5  A    between atoms: C9_10  and  C10_11
REMARK    6  A    between atoms: C10_11  and  C11_13
REMARK    7  A    between atoms: C11_13  and  C12_14
REMARK    8  A    between atoms: C12_14  and  C13_16
REMARK    9  A    between atoms: C14_17  and  C15_18
REMARK   10  A    between atoms: C17_20  and  O5_25
REMARK   11  A    between atoms: C18_21  and  O4_24
REMARK   12  A    between atoms: O5_25  and  C21_26
REMARK                            x       y       z     vdW  Elec       q    Type
REMARK                         _______ _______ _______ _____ _____    ______ ____
ROOT
ATOM      1  C11 UNL     1      -0.623  74.712  83.975  0.00  0.00    +0.000 C 
ENDROOT
BRANCH   1   2
ATOM      2  C10 UNL     1       0.018  76.028  84.317  0.00  0.00    +0.000 C 
ATOM      3  O2  UNL     1       0.582  76.167  85.436  0.00  0.00    +0.000 OA
BRANCH   2   5
ATOM      4  C8  UNL     1      -1.038  77.931  83.157  0.00  0.00    +0.000 C 
ATOM      5  C9  UNL     1       0.018  77.127  83.332  0.00  0.00    +0.000 C 
BRANCH   4  11
ATOM      6  C2  UNL     1      -0.332  80.262  82.440  0.00  0.00    +0.000 A 
ATOM      7  C3  UNL     1      -0.388  81.297  81.485  0.00  0.00    +0.000 A 
ATOM      8  C4  UNL     1      -1.105  81.129  80.293  0.00  0.00    +0.000 A 
ATOM      9  C5  UNL     1      -1.766  79.925  80.045  0.00  0.00    +0.000 A 
ATOM     10  C6  UNL     1      -1.727  78.896  80.985  0.00  0.00    +0.000 A 
ATOM     11  C7  UNL     1      -1.037  79.058  82.197  0.00  0.00    +0.000 A 
BRANCH   6  13
ATOM     12  C1  UNL     1       0.797  81.626  84.214  0.00  0.00    +0.000 C 
ATOM     13  O1  UNL     1       0.431  80.389  83.613  0.00  0.00    +0.000 OA
ENDBRANCH   6  13
BRANCH   8  14
ATOM     14  O6  UNL     1      -1.158  82.150  79.347  0.00  0.00    +0.000 OA
ATOM     15  H20 UNL     1      -0.996  83.118  79.600  0.00  0.00    +0.000 HD
ENDBRANCH   8  14
ENDBRANCH   4  11
ENDBRANCH   2   5
ENDBRANCH   1   2
BRANCH   1  16
ATOM     16  C12 UNL     1      -1.822  74.410  84.844  0.00  0.00    +0.000 C 
ATOM     17  O3  UNL     1      -1.745  73.525  85.738  0.00  0.00    +0.000 OA
BRANCH  16  18
ATOM     18  C13 UNL     1      -3.105  75.127  84.685  0.00  0.00    +0.000 C 
ATOM     19  C14 UNL     1      -4.069  74.736  83.837  0.00  0.00    +0.000 C 
BRANCH  19  20
ATOM     20  C15 UNL     1      -5.363  75.446  83.684  0.00  0.00    +0.000 A 
ATOM     21  C16 UNL     1      -5.681  76.198  82.534  0.00  0.00    +0.000 A 
ATOM     22  C17 UNL     1      -6.926  76.849  82.425  0.00  0.00    +0.000 A 
ATOM     23  C18 UNL     1      -7.857  76.734  83.466  0.00  0.00    +0.000 A 
ATOM     24  C19 UNL     1      -7.551  75.974  84.600  0.00  0.00    +0.000 A 
ATOM     25  C20 UNL     1      -6.317  75.329  84.705  0.00  0.00    +0.000 A 
BRANCH  23  26
ATOM     26  O4  UNL     1      -9.089  77.378  83.363  0.00  0.00    +0.000 OA
ATOM     27  H16 UNL     1      -9.898  76.915  82.964  0.00  0.00    +0.000 HD
ENDBRANCH  23  26
BRANCH  22  28
ATOM     28  O5  UNL     1      -7.276  77.613  81.299  0.00  0.00    +0.000 OA
ATOM     29  C21 UNL     1      -6.432  78.583  80.688  0.00  0.00    +0.000 C 
ENDBRANCH  22  28
ENDBRANCH  19  20
ENDBRANCH  16  18
ENDBRANCH   1  16
TORSDOF 10
ENDMDL
MODEL 6
REMARK VINA RESULT:      -7.0      2.493      5.099
REMARK  Name = .\curcumin.pdb
REMARK  12 active torsions:
REMARK  status: ('A' for Active; 'I' for Inactive)
REMARK    1  A    between atoms: C1_1  and  O1_2
REMARK    2  A    between atoms: O1_2  and  C2_3
REMARK    3  A    between atoms: C4_5  and  O6_27
REMARK    4  A    between atoms: C7_8  and  C8_9
REMARK    5  A    between atoms: C9_10  and  C10_11
REMARK    6  A    between atoms: C10_11  and  C11_13
REMARK    7  A    between atoms: C11_13  and  C12_14
REMARK    8  A    between atoms: C12_14  and  C13_16
REMARK    9  A    between atoms: C14_17  and  C15_18
REMARK   10  A    between atoms: C17_20  and  O5_25
REMARK   11  A    between atoms: C18_21  and  O4_24
REMARK   12  A    between atoms: O5_25  and  C21_26
REMARK                            x       y       z     vdW  Elec       q    Type
REMARK                         _______ _______ _______ _____ _____    ______ ____
ROOT
ATOM      1  C11 UNL     1      -5.099  79.009  78.668  0.00  0.00    +0.000 C 
ENDROOT
BRANCH   1   2
ATOM      2  C10 UNL     1      -5.438  77.547  78.581  0.00  0.00    +0.000 C 
ATOM      3  O2  UNL     1      -5.339  76.956  77.473  0.00  0.00    +0.000 OA
BRANCH   2   5
ATOM      4  C8  UNL     1      -5.614  77.281  81.027  0.00  0.00    +0.000 C 
ATOM      5  C9  UNL     1      -5.844  76.811  79.795  0.00  0.00    +0.000 C 
BRANCH   4  11
ATOM      6  C2  UNL     1      -7.283  76.839  82.888  0.00  0.00    +0.000 A 
ATOM      7  C3  UNL     1      -7.624  76.129  84.058  0.00  0.00    +0.000 A 
ATOM      8  C4  UNL     1      -6.767  75.146  84.568  0.00  0.00    +0.000 A 
ATOM      9  C5  UNL     1      -5.569  74.860  83.913  0.00  0.00    +0.000 A 
ATOM     10  C6  UNL     1      -5.215  75.562  82.760  0.00  0.00    +0.000 A 
ATOM     11  C7  UNL     1      -6.049  76.570  82.251  0.00  0.00    +0.000 A 
BRANCH   6  13
ATOM     12  C1  UNL     1      -9.573  77.650  82.266  0.00  0.00    +0.000 C 
ATOM     13  O1  UNL     1      -8.157  77.786  82.326  0.00  0.00    +0.000 OA
ENDBRANCH   6  13
BRANCH   8  14
ATOM     14  O6  UNL     1      -7.104  74.441  85.722  0.00  0.00    +0.000 OA
ATOM     15  H20 UNL     1      -6.466  74.369  86.506  0.00  0.00    +0.000 HD
ENDBRANCH   8  14
ENDBRANCH   4  11
ENDBRANCH   2   5
ENDBRANCH   1   2
BRANCH   1  16
ATOM     16  C12 UNL     1      -3.615  79.266  78.536  0.00  0.00    +0.000 C 
ATOM     17  O3  UNL     1      -3.112  79.487  77.402  0.00  0.00    +0.000 OA
BRANCH  16  18
ATOM     18  C13 UNL     1      -2.714  79.269  79.709  0.00  0.00    +0.000 C 
ATOM     19  C14 UNL     1      -2.146  78.159  80.206  0.00  0.00    +0.000 C 
BRANCH  19  20
ATOM     20  C15 UNL     1      -1.232  78.161  81.375  0.00  0.00    +0.000 A 
ATOM     21  C16 UNL     1      -0.831  79.348  82.020  0.00  0.00    +0.000 A 
ATOM     22  C17 UNL     1       0.031  79.305  83.134  0.00  0.00    +0.000 A 
ATOM     23  C18 UNL     1       0.481  78.065  83.607  0.00  0.00    +0.000 A 
ATOM     24  C19 UNL     1       0.071  76.883  82.980  0.00  0.00    +0.000 A 
ATOM     25  C20 UNL     1      -0.783  76.930  81.877  0.00  0.00    +0.000 A 
BRANCH  23  26
ATOM     26  O4  UNL     1       1.336  78.016  84.707  0.00  0.00    +0.000 OA
ATOM     27  H16 UNL     1       1.347  78.753  85.404  0.00  0.00    +0.000 HD
ENDBRANCH  23  26
BRANCH  22  28
ATOM     28  O5  UNL     1       0.457  80.466  83.798  0.00  0.00    +0.000 OA
ATOM     29  C21 UNL     1       0.586  81.745  83.185  0.00  0.00    +0.000 C 
ENDBRANCH  22  28
ENDBRANCH  19  20
ENDBRANCH  16  18
ENDBRANCH   1  16
TORSDOF 10
ENDMDL
MODEL 7
REMARK VINA RESULT:      -6.9      2.619      4.900
REMARK  Name = .\curcumin.pdb
REMARK  12 active torsions:
REMARK  status: ('A' for Active; 'I' for Inactive)
REMARK    1  A    between atoms: C1_1  and  O1_2
REMARK    2  A    between atoms: O1_2  and  C2_3
REMARK    3  A    between atoms: C4_5  and  O6_27
REMARK    4  A    between atoms: C7_8  and  C8_9
REMARK    5  A    between atoms: C9_10  and  C10_11
REMARK    6  A    between atoms: C10_11  and  C11_13
REMARK    7  A    between atoms: C11_13  and  C12_14
REMARK    8  A    between atoms: C12_14  and  C13_16
REMARK    9  A    between atoms: C14_17  and  C15_18
REMARK   10  A    between atoms: C17_20  and  O5_25
REMARK   11  A    between atoms: C18_21  and  O4_24
REMARK   12  A    between atoms: O5_25  and  C21_26
REMARK                            x       y       z     vdW  Elec       q    Type
REMARK                         _______ _______ _______ _____ _____    ______ ____
ROOT
ATOM      1  C11 UNL     1      -5.310  78.189  78.057  0.00  0.00    +0.000 C 
ENDROOT
BRANCH   1   2
ATOM      2  C10 UNL     1      -5.581  76.778  78.498  0.00  0.00    +0.000 C 
ATOM      3  O2  UNL     1      -5.255  75.822  77.745  0.00  0.00    +0.000 OA
BRANCH   2   5
ATOM      4  C8  UNL     1      -5.504  76.684  80.962  0.00  0.00    +0.000 C 
ATOM      5  C9  UNL     1      -6.186  76.522  79.821  0.00  0.00    +0.000 C 
BRANCH   4  11
ATOM      6  C2  UNL     1      -5.445  75.762  83.326  0.00  0.00    +0.000 A 
ATOM      7  C3  UNL     1      -6.092  75.584  84.567  0.00  0.00    +0.000 A 
ATOM      8  C4  UNL     1      -7.365  76.123  84.790  0.00  0.00    +0.000 A 
ATOM      9  C5  UNL     1      -7.999  76.848  83.780  0.00  0.00    +0.000 A 
ATOM     10  C6  UNL     1      -7.375  77.024  82.545  0.00  0.00    +0.000 A 
ATOM     11  C7  UNL     1      -6.111  76.466  82.295  0.00  0.00    +0.000 A 
BRANCH   6  13
ATOM     12  C1  UNL     1      -3.165  75.085  84.120  0.00  0.00    +0.000 C 
ATOM     13  O1  UNL     1      -4.143  75.282  83.104  0.00  0.00    +0.000 OA
ENDBRANCH   6  13
BRANCH   8  14
ATOM     14  O6  UNL     1      -8.004  75.951  86.016  0.00  0.00    +0.000 OA
ATOM     15  H20 UNL     1      -7.659  76.391  86.861  0.00  0.00    +0.000 HD
ENDBRANCH   8  14
ENDBRANCH   4  11
ENDBRANCH   2   5
ENDBRANCH   1   2
BRANCH   1  16
ATOM     16  C12 UNL     1      -3.843  78.441  77.799  0.00  0.00    +0.000 C 
ATOM     17  O3  UNL     1      -3.448  78.738  76.639  0.00  0.00    +0.000 OA
BRANCH  16  18
ATOM     18  C13 UNL     1      -2.832  78.352  78.875  0.00  0.00    +0.000 C 
ATOM     19  C14 UNL     1      -2.829  79.151  79.953  0.00  0.00    +0.000 C 
BRANCH  19  20
ATOM     20  C15 UNL     1      -1.823  79.056  81.040  0.00  0.00    +0.000 A 
ATOM     21  C16 UNL     1      -0.909  80.093  81.318  0.00  0.00    +0.000 A 
ATOM     22  C17 UNL     1       0.023  79.966  82.367  0.00  0.00    +0.000 A 
ATOM     23  C18 UNL     1       0.029  78.800  83.144  0.00  0.00    +0.000 A 
ATOM     24  C19 UNL     1      -0.889  77.777  82.883  0.00  0.00    +0.000 A 
ATOM     25  C20 UNL     1      -1.812  77.906  81.844  0.00  0.00    +0.000 A 
BRANCH  23  26
ATOM     26  O4  UNL     1       0.951  78.669  84.182  0.00  0.00    +0.000 OA
ATOM     27  H16 UNL     1       1.121  77.775  84.631  0.00  0.00    +0.000 HD
ENDBRANCH  23  26
BRANCH  22  28
ATOM     28  O5  UNL     1       0.953  80.974  82.669  0.00  0.00    +0.000 OA
ATOM     29  C21 UNL     1       0.612  82.268  83.153  0.00  0.00    +0.000 C 
ENDBRANCH  22  28
ENDBRANCH  19  20
ENDBRANCH  16  18
ENDBRANCH   1  16
TORSDOF 10
ENDMDL
MODEL 8
REMARK VINA RESULT:      -6.8      2.656      8.033
REMARK  Name = .\curcumin.pdb
REMARK  12 active torsions:
REMARK  status: ('A' for Active; 'I' for Inactive)
REMARK    1  A    between atoms: C1_1  and  O1_2
REMARK    2  A    between atoms: O1_2  and  C2_3
REMARK    3  A    between atoms: C4_5  and  O6_27
REMARK    4  A    between atoms: C7_8  and  C8_9
REMARK    5  A    between atoms: C9_10  and  C10_11
REMARK    6  A    between atoms: C10_11  and  C11_13
REMARK    7  A    between atoms: C11_13  and  C12_14
REMARK    8  A    between atoms: C12_14  and  C13_16
REMARK    9  A    between atoms: C14_17  and  C15_18
REMARK   10  A    between atoms: C17_20  and  O5_25
REMARK   11  A    between atoms: C18_21  and  O4_24
REMARK   12  A    between atoms: O5_25  and  C21_26
REMARK                            x       y       z     vdW  Elec       q    Type
REMARK                         _______ _______ _______ _____ _____    ______ ____
ROOT
ATOM      1  C11 UNL     1      -5.299  78.718  78.063  0.00  0.00    +0.000 C 
ENDROOT
BRANCH   1   2
ATOM      2  C10 UNL     1      -3.893  79.171  77.783  0.00  0.00    +0.000 C 
ATOM      3  O2  UNL     1      -3.621  79.687  76.666  0.00  0.00    +0.000 OA
BRANCH   2   5
ATOM      4  C8  UNL     1      -2.916  79.726  79.979  0.00  0.00    +0.000 C 
ATOM      5  C9  UNL     1      -2.857  79.045  78.827  0.00  0.00    +0.000 C 
BRANCH   4  11
ATOM      6  C2  UNL     1      -0.916  80.565  81.299  0.00  0.00    +0.000 A 
ATOM      7  C3  UNL     1       0.024  80.351  82.328  0.00  0.00    +0.000 A 
ATOM      8  C4  UNL     1      -0.033  79.194  83.115  0.00  0.00    +0.000 A 
ATOM      9  C5  UNL     1      -1.031  78.246  82.886  0.00  0.00    +0.000 A 
ATOM     10  C6  UNL     1      -1.962  78.441  81.865  0.00  0.00    +0.000 A 
ATOM     11  C7  UNL     1      -1.902  79.581  81.048  0.00  0.00    +0.000 A 
BRANCH   6  13
ATOM     12  C1  UNL     1       0.016  82.043  79.501  0.00  0.00    +0.000 C 
ATOM     13  O1  UNL     1      -0.913  81.747  80.539  0.00  0.00    +0.000 OA
ENDBRANCH   6  13
BRANCH   8  14
ATOM     14  O6  UNL     1       0.894  78.983  84.135  0.00  0.00    +0.000 OA
ATOM     15  H20 UNL     1       1.763  78.490  83.968  0.00  0.00    +0.000 HD
ENDBRANCH   8  14
ENDBRANCH   4  11
ENDBRANCH   2   5
ENDBRANCH   1   2
BRANCH   1  16
ATOM     16  C12 UNL     1      -5.403  77.218  78.215  0.00  0.00    +0.000 C 
ATOM     17  O3  UNL     1      -5.217  76.469  77.219  0.00  0.00    +0.000 OA
BRANCH  16  18
ATOM     18  C13 UNL     1      -5.721  76.583  79.513  0.00  0.00    +0.000 C 
ATOM     19  C14 UNL     1      -5.347  77.094  80.696  0.00  0.00    +0.000 C 
BRANCH  19  20
ATOM     20  C15 UNL     1      -5.676  76.466  81.999  0.00  0.00    +0.000 A 
ATOM     21  C16 UNL     1      -4.684  76.081  82.925  0.00  0.00    +0.000 A 
ATOM     22  C17 UNL     1      -5.040  75.497  84.157  0.00  0.00    +0.000 A 
ATOM     23  C18 UNL     1      -6.395  75.309  84.464  0.00  0.00    +0.000 A 
ATOM     24  C19 UNL     1      -7.382  75.707  83.555  0.00  0.00    +0.000 A 
ATOM     25  C20 UNL     1      -7.026  76.286  82.336  0.00  0.00    +0.000 A 
BRANCH  23  26
ATOM     26  O4  UNL     1      -6.752  74.730  85.680  0.00  0.00    +0.000 OA
ATOM     27  H16 UNL     1      -7.720  74.532  85.910  0.00  0.00    +0.000 HD
ENDBRANCH  23  26
BRANCH  22  28
ATOM     28  O5  UNL     1      -4.081  75.094  85.100  0.00  0.00    +0.000 OA
ATOM     29  C21 UNL     1      -2.726  74.785  84.792  0.00  0.00    +0.000 C 
ENDBRANCH  22  28
ENDBRANCH  19  20
ENDBRANCH  16  18
ENDBRANCH   1  16
TORSDOF 10
ENDMDL
MODEL 9
REMARK VINA RESULT:      -6.7      3.587      6.828
REMARK  Name = .\curcumin.pdb
REMARK  12 active torsions:
REMARK  status: ('A' for Active; 'I' for Inactive)
REMARK    1  A    between atoms: C1_1  and  O1_2
REMARK    2  A    between atoms: O1_2  and  C2_3
REMARK    3  A    between atoms: C4_5  and  O6_27
REMARK    4  A    between atoms: C7_8  and  C8_9
REMARK    5  A    between atoms: C9_10  and  C10_11
REMARK    6  A    between atoms: C10_11  and  C11_13
REMARK    7  A    between atoms: C11_13  and  C12_14
REMARK    8  A    between atoms: C12_14  and  C13_16
REMARK    9  A    between atoms: C14_17  and  C15_18
REMARK   10  A    between atoms: C17_20  and  O5_25
REMARK   11  A    between atoms: C18_21  and  O4_24
REMARK   12  A    between atoms: O5_25  and  C21_26
REMARK                            x       y       z     vdW  Elec       q    Type
REMARK                         _______ _______ _______ _____ _____    ______ ____
ROOT
ATOM      1  C11 UNL     1      -1.523  80.818  81.400  0.00  0.00    +0.000 C 
ENDROOT
BRANCH   1   2
ATOM      2  C10 UNL     1      -0.552  79.671  81.407  0.00  0.00    +0.000 C 
ATOM      3  O2  UNL     1       0.354  79.623  80.532  0.00  0.00    +0.000 OA
BRANCH   2   5
ATOM      4  C8  UNL     1      -1.423  77.556  82.330  0.00  0.00    +0.000 C 
ATOM      5  C9  UNL     1      -0.641  78.636  82.455  0.00  0.00    +0.000 C 
BRANCH   4  11
ATOM      6  C2  UNL     1      -2.677  75.761  83.614  0.00  0.00    +0.000 A 
ATOM      7  C3  UNL     1      -2.671  74.771  84.618  0.00  0.00    +0.000 A 
ATOM      8  C4  UNL     1      -1.501  74.492  85.336  0.00  0.00    +0.000 A 
ATOM      9  C5  UNL     1      -0.329  75.194  85.053  0.00  0.00    +0.000 A 
ATOM     10  C6  UNL     1      -0.323  76.182  84.068  0.00  0.00    +0.000 A 
ATOM     11  C7  UNL     1      -1.494  76.494  83.359  0.00  0.00    +0.000 A 
BRANCH   6  13
ATOM     12  C1  UNL     1      -4.918  76.827  83.253  0.00  0.00    +0.000 C 
ATOM     13  O1  UNL     1      -3.824  76.013  82.842  0.00  0.00    +0.000 OA
ENDBRANCH   6  13
BRANCH   8  14
ATOM     14  O6  UNL     1      -1.493  73.512  86.327  0.00  0.00    +0.000 OA
ATOM     15  H20 UNL     1      -2.323  73.293  86.864  0.00  0.00    +0.000 HD
ENDBRANCH   8  14
ENDBRANCH   4  11
ENDBRANCH   2   5
ENDBRANCH   1   2
BRANCH   1  16
ATOM     16  C12 UNL     1      -2.866  80.434  80.824  0.00  0.00    +0.000 C 
ATOM     17  O3  UNL     1      -3.904  80.516  81.536  0.00  0.00    +0.000 OA
BRANCH  16  18
ATOM     18  C13 UNL     1      -3.015  79.957  79.432  0.00  0.00    +0.000 C 
ATOM     19  C14 UNL     1      -3.235  78.673  79.111  0.00  0.00    +0.000 C 
BRANCH  19  20
ATOM     20  C15 UNL     1      -3.396  78.193  77.717  0.00  0.00    +0.000 A 
ATOM     21  C16 UNL     1      -3.572  79.074  76.630  0.00  0.00    +0.000 A 
ATOM     22  C17 UNL     1      -3.711  78.577  75.318  0.00  0.00    +0.000 A 
ATOM     23  C18 UNL     1      -3.661  77.194  75.098  0.00  0.00    +0.000 A 
ATOM     24  C19 UNL     1      -3.468  76.318  76.172  0.00  0.00    +0.000 A 
ATOM     25  C20 UNL     1      -3.330  76.814  77.470  0.00  0.00    +0.000 A 
BRANCH  23  26
ATOM     26  O4  UNL     1      -3.800  76.697  73.803  0.00  0.00    +0.000 OA
ATOM     27  H16 UNL     1      -3.028  76.249  73.321  0.00  0.00    +0.000 HD
ENDBRANCH  23  26
BRANCH  22  28
ATOM     28  O5  UNL     1      -3.894  79.423  74.212  0.00  0.00    +0.000 OA
ATOM     29  C21 UNL     1      -3.302  80.710  74.073  0.00  0.00    +0.000 C 
ENDBRANCH  22  28
ENDBRANCH  19  20
ENDBRANCH  16  18
ENDBRANCH   1  16
TORSDOF 10
ENDMDL
