MODEL 1
REMARK VINA RESULT:      -5.7      0.000      0.000
REMARK  Name = .\curcumin.pdb
REMARK  12 active torsions:
REMARK  status: ('A' for Active; 'I' for Inactive)
REMARK    1  A    between atoms: C1_1  and  O1_2
REMARK    2  A    between atoms: O1_2  and  C2_3
REMARK    3  A    between atoms: C4_5  and  O6_27
REMARK    4  A    between atoms: C7_8  and  C8_9
REMARK    5  A    between atoms: C9_10  and  C10_11
REMARK    6  A    between atoms: C10_11  and  C11_13
REMARK    7  A    between atoms: C11_13  and  C12_14
REMARK    8  A    between atoms: C12_14  and  C13_16
REMARK    9  A    between atoms: C14_17  and  C15_18
REMARK   10  A    between atoms: C17_20  and  O5_25
REMARK   11  A    between atoms: C18_21  and  O4_24
REMARK   12  A    between atoms: O5_25  and  C21_26
REMARK                            x       y       z     vdW  Elec       q    Type
REMARK                         _______ _______ _______ _____ _____    ______ ____
ROOT
ATOM      1  C11 UNL     1     -17.377  91.511 135.784  0.00  0.00    +0.000 C 
ENDROOT
BRANCH   1   2
ATOM      2  C10 UNL     1     -16.391  90.707 134.984  0.00  0.00    +0.000 C 
ATOM      3  O2  UNL     1     -16.669  90.394 133.795  0.00  0.00    +0.000 OA
BRANCH   2   5
ATOM      4  C8  UNL     1     -13.926  90.628 135.000  0.00  0.00    +0.000 C 
ATOM      5  C9  UNL     1     -15.095  90.327 135.579  0.00  0.00    +0.000 C 
BRANCH   4  11
ATOM      6  C2  UNL     1     -11.409  90.897 135.199  0.00  0.00    +0.000 A 
ATOM      7  C3  UNL     1     -10.201  90.509 135.814  0.00  0.00    +0.000 A 
ATOM      8  C4  UNL     1     -10.197  89.552 136.836  0.00  0.00    +0.000 A 
ATOM      9  C5  UNL     1     -11.399  88.981 137.257  0.00  0.00    +0.000 A 
ATOM     10  C6  UNL     1     -12.601  89.348 136.651  0.00  0.00    +0.000 A 
ATOM     11  C7  UNL     1     -12.619  90.285 135.605  0.00  0.00    +0.000 A 
BRANCH   6  13
ATOM     12  C1  UNL     1     -11.609  93.289 134.474  0.00  0.00    +0.000 C 
ATOM     13  O1  UNL     1     -11.440  91.899 134.214  0.00  0.00    +0.000 OA
ENDBRANCH   6  13
BRANCH   8  14
ATOM     14  O6  UNL     1      -9.005  89.171 137.447  0.00  0.00    +0.000 OA
ATOM     15  H20 UNL     1      -8.859  88.226 137.784  0.00  0.00    +0.000 HD
ENDBRANCH   8  14
ENDBRANCH   4  11
ENDBRANCH   2   5
ENDBRANCH   1   2
BRANCH   1  16
ATOM     16  C12 UNL     1     -16.788  92.806 136.294  0.00  0.00    +0.000 C 
ATOM     17  O3  UNL     1     -16.472  92.919 137.509  0.00  0.00    +0.000 OA
BRANCH  16  18
ATOM     18  C13 UNL     1     -16.563  93.967 135.406  0.00  0.00    +0.000 C 
ATOM     19  C14 UNL     1     -15.382  94.237 134.828  0.00  0.00    +0.000 C 
BRANCH  19  20
ATOM     20  C15 UNL     1     -15.157  95.394 133.927  0.00  0.00    +0.000 A 
ATOM     21  C16 UNL     1     -15.551  96.705 134.267  0.00  0.00    +0.000 A 
ATOM     22  C17 UNL     1     -15.308  97.778 133.387  0.00  0.00    +0.000 A 
ATOM     23  C18 UNL     1     -14.658  97.536 132.169  0.00  0.00    +0.000 A 
ATOM     24  C19 UNL     1     -14.249  96.239 131.837  0.00  0.00    +0.000 A 
ATOM     25  C20 UNL     1     -14.491  95.178 132.712  0.00  0.00    +0.000 A 
BRANCH  23  26
ATOM     26  O4  UNL     1     -14.418  98.593 131.294  0.00  0.00    +0.000 OA
ATOM     27  H16 UNL     1     -15.159  98.995 130.729  0.00  0.00    +0.000 HD
ENDBRANCH  23  26
BRANCH  22  28
ATOM     28  O5  UNL     1     -15.692  99.095 133.687  0.00  0.00    +0.000 OA
ATOM     29  C21 UNL     1     -15.204  99.846 134.794  0.00  0.00    +0.000 C 
ENDBRANCH  22  28
ENDBRANCH  19  20
ENDBRANCH  16  18
ENDBRANCH   1  16
TORSDOF 10
ENDMDL
MODEL 2
REMARK VINA RESULT:      -5.5      2.312      6.223
REMARK  Name = .\curcumin.pdb
REMARK  12 active torsions:
REMARK  status: ('A' for Active; 'I' for Inactive)
REMARK    1  A    between atoms: C1_1  and  O1_2
REMARK    2  A    between atoms: O1_2  and  C2_3
REMARK    3  A    between atoms: C4_5  and  O6_27
REMARK    4  A    between atoms: C7_8  and  C8_9
REMARK    5  A    between atoms: C9_10  and  C10_11
REMARK    6  A    between atoms: C10_11  and  C11_13
REMARK    7  A    between atoms: C11_13  and  C12_14
REMARK    8  A    between atoms: C12_14  and  C13_16
REMARK    9  A    between atoms: C14_17  and  C15_18
REMARK   10  A    between atoms: C17_20  and  O5_25
REMARK   11  A    between atoms: C18_21  and  O4_24
REMARK   12  A    between atoms: O5_25  and  C21_26
REMARK                            x       y       z     vdW  Elec       q    Type
REMARK                         _______ _______ _______ _____ _____    ______ ____
ROOT
ATOM      1  C11 UNL     1     -14.323  94.872 133.089  0.00  0.00    +0.000 C 
ENDROOT
BRANCH   1   2
ATOM      2  C10 UNL     1     -12.931  94.831 133.655  0.00  0.00    +0.000 C 
ATOM      3  O2  UNL     1     -12.303  95.910 133.826  0.00  0.00    +0.000 OA
BRANCH   2   5
ATOM      4  C8  UNL     1     -12.176  93.177 135.321  0.00  0.00    +0.000 C 
ATOM      5  C9  UNL     1     -12.330  93.539 134.042  0.00  0.00    +0.000 C 
BRANCH   4  11
ATOM      6  C2  UNL     1     -11.779  91.332 137.020  0.00  0.00    +0.000 A 
ATOM      7  C3  UNL     1     -11.198  90.085 137.331  0.00  0.00    +0.000 A 
ATOM      8  C4  UNL     1     -10.487  89.369 136.360  0.00  0.00    +0.000 A 
ATOM      9  C5  UNL     1     -10.356  89.888 135.071  0.00  0.00    +0.000 A 
ATOM     10  C6  UNL     1     -10.917  91.125 134.752  0.00  0.00    +0.000 A 
ATOM     11  C7  UNL     1     -11.609  91.869 135.721  0.00  0.00    +0.000 A 
BRANCH   6  13
ATOM     12  C1  UNL     1     -13.772  91.575 138.521  0.00  0.00    +0.000 C 
ATOM     13  O1  UNL     1     -12.547  92.037 137.962  0.00  0.00    +0.000 OA
ENDBRANCH   6  13
BRANCH   8  14
ATOM     14  O6  UNL     1      -9.915  88.135 136.665  0.00  0.00    +0.000 OA
ATOM     15  H20 UNL     1      -9.159  87.750 136.112  0.00  0.00    +0.000 HD
ENDBRANCH   8  14
ENDBRANCH   4  11
ENDBRANCH   2   5
ENDBRANCH   1   2
BRANCH   1  16
ATOM     16  C12 UNL     1     -15.383  94.931 134.165  0.00  0.00    +0.000 C 
ATOM     17  O3  UNL     1     -15.975  96.017 134.406  0.00  0.00    +0.000 OA
BRANCH  16  18
ATOM     18  C13 UNL     1     -15.758  93.743 134.961  0.00  0.00    +0.000 C 
ATOM     19  C14 UNL     1     -15.536  92.483 134.556  0.00  0.00    +0.000 C 
BRANCH  19  20
ATOM     20  C15 UNL     1     -15.900  91.289 135.359  0.00  0.00    +0.000 A 
ATOM     21  C16 UNL     1     -15.071  90.152 135.442  0.00  0.00    +0.000 A 
ATOM     22  C17 UNL     1     -15.450  89.043 136.225  0.00  0.00    +0.000 A 
ATOM     23  C18 UNL     1     -16.659  89.082 136.933  0.00  0.00    +0.000 A 
ATOM     24  C19 UNL     1     -17.475  90.216 136.867  0.00  0.00    +0.000 A 
ATOM     25  C20 UNL     1     -17.096  91.313 136.091  0.00  0.00    +0.000 A 
BRANCH  23  26
ATOM     26  O4  UNL     1     -17.039  87.987 137.707  0.00  0.00    +0.000 OA
ATOM     27  H16 UNL     1     -17.605  87.237 137.324  0.00  0.00    +0.000 HD
ENDBRANCH  23  26
BRANCH  22  28
ATOM     28  O5  UNL     1     -14.654  87.891 136.327  0.00  0.00    +0.000 OA
ATOM     29  C21 UNL     1     -13.743  87.630 137.390  0.00  0.00    +0.000 C 
ENDBRANCH  22  28
ENDBRANCH  19  20
ENDBRANCH  16  18
ENDBRANCH   1  16
TORSDOF 10
ENDMDL
MODEL 3
REMARK VINA RESULT:      -5.5      1.375      7.252
REMARK  Name = .\curcumin.pdb
REMARK  12 active torsions:
REMARK  status: ('A' for Active; 'I' for Inactive)
REMARK    1  A    between atoms: C1_1  and  O1_2
REMARK    2  A    between atoms: O1_2  and  C2_3
REMARK    3  A    between atoms: C4_5  and  O6_27
REMARK    4  A    between atoms: C7_8  and  C8_9
REMARK    5  A    between atoms: C9_10  and  C10_11
REMARK    6  A    between atoms: C10_11  and  C11_13
REMARK    7  A    between atoms: C11_13  and  C12_14
REMARK    8  A    between atoms: C12_14  and  C13_16
REMARK    9  A    between atoms: C14_17  and  C15_18
REMARK   10  A    between atoms: C17_20  and  O5_25
REMARK   11  A    between atoms: C18_21  and  O4_24
REMARK   12  A    between atoms: O5_25  and  C21_26
REMARK                            x       y       z     vdW  Elec       q    Type
REMARK                         _______ _______ _______ _____ _____    ______ ____
ROOT
ATOM      1  C11 UNL     1     -17.895  92.020 136.608  0.00  0.00    +0.000 C 
ENDROOT
BRANCH   1   2
ATOM      2  C10 UNL     1     -17.024  93.222 136.846  0.00  0.00    +0.000 C 
ATOM      3  O2  UNL     1     -16.485  93.380 137.974  0.00  0.00    +0.000 OA
BRANCH   2   5
ATOM      4  C8  UNL     1     -15.541  94.544 135.384  0.00  0.00    +0.000 C 
ATOM      5  C9  UNL     1     -16.776  94.181 135.751  0.00  0.00    +0.000 C 
BRANCH   4  11
ATOM      6  C2  UNL     1     -14.248  95.259 133.320  0.00  0.00    +0.000 A 
ATOM      7  C3  UNL     1     -14.050  96.199 132.287  0.00  0.00    +0.000 A 
ATOM      8  C4  UNL     1     -14.883  97.319 132.175  0.00  0.00    +0.000 A 
ATOM      9  C5  UNL     1     -15.921  97.507 133.089  0.00  0.00    +0.000 A 
ATOM     10  C6  UNL     1     -16.122  96.591 134.121  0.00  0.00    +0.000 A 
ATOM     11  C7  UNL     1     -15.279  95.477 134.265  0.00  0.00    +0.000 A 
BRANCH   6  13
ATOM     12  C1  UNL     1     -12.224  94.008 134.111  0.00  0.00    +0.000 C 
ATOM     13  O1  UNL     1     -13.462  94.098 133.413  0.00  0.00    +0.000 OA
ENDBRANCH   6  13
BRANCH   8  14
ATOM     14  O6  UNL     1     -14.692  98.247 131.153  0.00  0.00    +0.000 OA
ATOM     15  H20 UNL     1     -15.470  98.739 130.730  0.00  0.00    +0.000 HD
ENDBRANCH   8  14
ENDBRANCH   4  11
ENDBRANCH   2   5
ENDBRANCH   1   2
BRANCH   1  16
ATOM     16  C12 UNL     1     -17.365  91.132 135.505  0.00  0.00    +0.000 C 
ATOM     17  O3  UNL     1     -18.097  90.845 134.521  0.00  0.00    +0.000 OA
BRANCH  16  18
ATOM     18  C13 UNL     1     -15.994  90.577 135.538  0.00  0.00    +0.000 C 
ATOM     19  C14 UNL     1     -15.019  90.969 134.704  0.00  0.00    +0.000 C 
BRANCH  19  20
ATOM     20  C15 UNL     1     -13.640  90.423 134.742  0.00  0.00    +0.000 A 
ATOM     21  C16 UNL     1     -12.968  90.150 135.951  0.00  0.00    +0.000 A 
ATOM     22  C17 UNL     1     -11.662  89.621 135.943  0.00  0.00    +0.000 A 
ATOM     23  C18 UNL     1     -11.035  89.354 134.718  0.00  0.00    +0.000 A 
ATOM     24  C19 UNL     1     -11.707  89.606 133.517  0.00  0.00    +0.000 A 
ATOM     25  C20 UNL     1     -13.001  90.130 133.528  0.00  0.00    +0.000 A 
BRANCH  23  26
ATOM     26  O4  UNL     1      -9.743  88.833 134.705  0.00  0.00    +0.000 OA
ATOM     27  H16 UNL     1      -8.930  89.431 134.602  0.00  0.00    +0.000 HD
ENDBRANCH  23  26
BRANCH  22  28
ATOM     28  O5  UNL     1     -10.958  89.343 137.127  0.00  0.00    +0.000 OA
ATOM     29  C21 UNL     1     -11.495  89.489 138.437  0.00  0.00    +0.000 C 
ENDBRANCH  22  28
ENDBRANCH  19  20
ENDBRANCH  16  18
ENDBRANCH   1  16
TORSDOF 10
ENDMDL
MODEL 4
REMARK VINA RESULT:      -5.3      2.016      7.785
REMARK  Name = .\curcumin.pdb
REMARK  12 active torsions:
REMARK  status: ('A' for Active; 'I' for Inactive)
REMARK    1  A    between atoms: C1_1  and  O1_2
REMARK    2  A    between atoms: O1_2  and  C2_3
REMARK    3  A    between atoms: C4_5  and  O6_27
REMARK    4  A    between atoms: C7_8  and  C8_9
REMARK    5  A    between atoms: C9_10  and  C10_11
REMARK    6  A    between atoms: C10_11  and  C11_13
REMARK    7  A    between atoms: C11_13  and  C12_14
REMARK    8  A    between atoms: C12_14  and  C13_16
REMARK    9  A    between atoms: C14_17  and  C15_18
REMARK   10  A    between atoms: C17_20  and  O5_25
REMARK   11  A    between atoms: C18_21  and  O4_24
REMARK   12  A    between atoms: O5_25  and  C21_26
REMARK                            x       y       z     vdW  Elec       q    Type
REMARK                         _______ _______ _______ _____ _____    ______ ____
ROOT
ATOM      1  C11 UNL     1     -16.040  94.572 137.896  0.00  0.00    +0.000 C 
ENDROOT
BRANCH   1   2
ATOM      2  C10 UNL     1     -16.750  95.761 137.313  0.00  0.00    +0.000 C 
ATOM      3  O2  UNL     1     -17.829  96.153 137.834  0.00  0.00    +0.000 OA
BRANCH   2   5
ATOM      4  C8  UNL     1     -16.463  96.176 134.899  0.00  0.00    +0.000 C 
ATOM      5  C9  UNL     1     -16.161  96.482 136.167  0.00  0.00    +0.000 C 
BRANCH   4  11
ATOM      6  C2  UNL     1     -14.855  96.401 132.947  0.00  0.00    +0.000 A 
ATOM      7  C3  UNL     1     -14.369  97.169 131.868  0.00  0.00    +0.000 A 
ATOM      8  C4  UNL     1     -14.939  98.412 131.565  0.00  0.00    +0.000 A 
ATOM      9  C5  UNL     1     -16.001  98.895 132.332  0.00  0.00    +0.000 A 
ATOM     10  C6  UNL     1     -16.485  98.150 133.407  0.00  0.00    +0.000 A 
ATOM     11  C7  UNL     1     -15.907  96.915 133.742  0.00  0.00    +0.000 A 
BRANCH   6  13
ATOM     12  C1  UNL     1     -12.987  94.860 133.593  0.00  0.00    +0.000 C 
ATOM     13  O1  UNL     1     -14.337  95.126 133.229  0.00  0.00    +0.000 OA
ENDBRANCH   6  13
BRANCH   8  14
ATOM     14  O6  UNL     1     -14.463  99.170 130.498  0.00  0.00    +0.000 OA
ATOM     15  H20 UNL     1     -14.619 100.170 130.445  0.00  0.00    +0.000 HD
ENDBRANCH   8  14
ENDBRANCH   4  11
ENDBRANCH   2   5
ENDBRANCH   1   2
BRANCH   1  16
ATOM     16  C12 UNL     1     -16.388  93.285 137.183  0.00  0.00    +0.000 C 
ATOM     17  O3  UNL     1     -17.587  93.029 136.893  0.00  0.00    +0.000 OA
BRANCH  16  18
ATOM     18  C13 UNL     1     -15.355  92.296 136.806  0.00  0.00    +0.000 C 
ATOM     19  C14 UNL     1     -14.180  92.630 136.251  0.00  0.00    +0.000 C 
BRANCH  19  20
ATOM     20  C15 UNL     1     -13.137  91.640 135.883  0.00  0.00    +0.000 A 
ATOM     21  C16 UNL     1     -13.279  90.764 134.787  0.00  0.00    +0.000 A 
ATOM     22  C17 UNL     1     -12.260  89.846 134.466  0.00  0.00    +0.000 A 
ATOM     23  C18 UNL     1     -11.092  89.817 135.239  0.00  0.00    +0.000 A 
ATOM     24  C19 UNL     1     -10.940  90.697 136.316  0.00  0.00    +0.000 A 
ATOM     25  C20 UNL     1     -11.951  91.606 136.631  0.00  0.00    +0.000 A 
BRANCH  23  26
ATOM     26  O4  UNL     1     -10.081  88.909 134.926  0.00  0.00    +0.000 OA
ATOM     27  H16 UNL     1      -9.896  88.098 135.508  0.00  0.00    +0.000 HD
ENDBRANCH  23  26
BRANCH  22  28
ATOM     28  O5  UNL     1     -12.368  88.953 133.387  0.00  0.00    +0.000 OA
ATOM     29  C21 UNL     1     -11.849  89.196 132.083  0.00  0.00    +0.000 C 
ENDBRANCH  22  28
ENDBRANCH  19  20
ENDBRANCH  16  18
ENDBRANCH   1  16
TORSDOF 10
ENDMDL
MODEL 5
REMARK VINA RESULT:      -5.2      2.356      6.231
REMARK  Name = .\curcumin.pdb
REMARK  12 active torsions:
REMARK  status: ('A' for Active; 'I' for Inactive)
REMARK    1  A    between atoms: C1_1  and  O1_2
REMARK    2  A    between atoms: O1_2  and  C2_3
REMARK    3  A    between atoms: C4_5  and  O6_27
REMARK    4  A    between atoms: C7_8  and  C8_9
REMARK    5  A    between atoms: C9_10  and  C10_11
REMARK    6  A    between atoms: C10_11  and  C11_13
REMARK    7  A    between atoms: C11_13  and  C12_14
REMARK    8  A    between atoms: C12_14  and  C13_16
REMARK    9  A    between atoms: C14_17  and  C15_18
REMARK   10  A    between atoms: C17_20  and  O5_25
REMARK   11  A    between atoms: C18_21  and  O4_24
REMARK   12  A    between atoms: O5_25  and  C21_26
REMARK                            x       y       z     vdW  Elec       q    Type
REMARK                         _______ _______ _______ _____ _____    ______ ____
ROOT
ATOM      1  C11 UNL     1     -14.474  94.644 133.417  0.00  0.00    +0.000 C 
ENDROOT
BRANCH   1   2
ATOM      2  C10 UNL     1     -13.054  94.880 133.852  0.00  0.00    +0.000 C 
ATOM      3  O2  UNL     1     -12.546  96.024 133.706  0.00  0.00    +0.000 OA
BRANCH   2   5
ATOM      4  C8  UNL     1     -12.618  92.500 134.331  0.00  0.00    +0.000 C 
ATOM      5  C9  UNL     1     -12.285  93.788 134.481  0.00  0.00    +0.000 C 
BRANCH   4  11
ATOM      6  C2  UNL     1     -11.706  90.131 134.302  0.00  0.00    +0.000 A 
ATOM      7  C3  UNL     1     -10.951  89.123 134.936  0.00  0.00    +0.000 A 
ATOM      8  C4  UNL     1     -10.307  89.375 136.154  0.00  0.00    +0.000 A 
ATOM      9  C5  UNL     1     -10.406  90.635 136.745  0.00  0.00    +0.000 A 
ATOM     10  C6  UNL     1     -11.158  91.639 136.134  0.00  0.00    +0.000 A 
ATOM     11  C7  UNL     1     -11.833  91.395 134.927  0.00  0.00    +0.000 A 
BRANCH   6  13
ATOM     12  C1  UNL     1     -11.683  89.269 131.949  0.00  0.00    +0.000 C 
ATOM     13  O1  UNL     1     -12.309  89.917 133.051  0.00  0.00    +0.000 OA
ENDBRANCH   6  13
BRANCH   8  14
ATOM     14  O6  UNL     1      -9.558  88.380 136.780  0.00  0.00    +0.000 OA
ATOM     15  H20 UNL     1      -9.758  87.397 136.640  0.00  0.00    +0.000 HD
ENDBRANCH   8  14
ENDBRANCH   4  11
ENDBRANCH   2   5
ENDBRANCH   1   2
BRANCH   1  16
ATOM     16  C12 UNL     1     -15.425  94.535 134.586  0.00  0.00    +0.000 C 
ATOM     17  O3  UNL     1     -15.866  95.578 135.140  0.00  0.00    +0.000 OA
BRANCH  16  18
ATOM     18  C13 UNL     1     -15.868  93.227 135.116  0.00  0.00    +0.000 C 
ATOM     19  C14 UNL     1     -15.709  92.070 134.455  0.00  0.00    +0.000 C 
BRANCH  19  20
ATOM     20  C15 UNL     1     -16.142  90.755 134.989  0.00  0.00    +0.000 A 
ATOM     21  C16 UNL     1     -15.233  89.825 135.535  0.00  0.00    +0.000 A 
ATOM     22  C17 UNL     1     -15.688  88.591 136.042  0.00  0.00    +0.000 A 
ATOM     23  C18 UNL     1     -17.058  88.297 136.012  0.00  0.00    +0.000 A 
ATOM     24  C19 UNL     1     -17.964  89.226 135.488  0.00  0.00    +0.000 A 
ATOM     25  C20 UNL     1     -17.510  90.447 134.987  0.00  0.00    +0.000 A 
BRANCH  23  26
ATOM     26  O4  UNL     1     -17.512  87.077 136.510  0.00  0.00    +0.000 OA
ATOM     27  H16 UNL     1     -17.641  86.925 137.505  0.00  0.00    +0.000 HD
ENDBRANCH  23  26
BRANCH  22  28
ATOM     28  O5  UNL     1     -14.813  87.637 136.587  0.00  0.00    +0.000 OA
ATOM     29  C21 UNL     1     -13.624  87.949 137.305  0.00  0.00    +0.000 C 
ENDBRANCH  22  28
ENDBRANCH  19  20
ENDBRANCH  16  18
ENDBRANCH   1  16
TORSDOF 10
ENDMDL
MODEL 6
REMARK VINA RESULT:      -5.2      1.786      2.259
REMARK  Name = .\curcumin.pdb
REMARK  12 active torsions:
REMARK  status: ('A' for Active; 'I' for Inactive)
REMARK    1  A    between atoms: C1_1  and  O1_2
REMARK    2  A    between atoms: O1_2  and  C2_3
REMARK    3  A    between atoms: C4_5  and  O6_27
REMARK    4  A    between atoms: C7_8  and  C8_9
REMARK    5  A    between atoms: C9_10  and  C10_11
REMARK    6  A    between atoms: C10_11  and  C11_13
REMARK    7  A    between atoms: C11_13  and  C12_14
REMARK    8  A    between atoms: C12_14  and  C13_16
REMARK    9  A    between atoms: C14_17  and  C15_18
REMARK   10  A    between atoms: C17_20  and  O5_25
REMARK   11  A    between atoms: C18_21  and  O4_24
REMARK   12  A    between atoms: O5_25  and  C21_26
REMARK                            x       y       z     vdW  Elec       q    Type
REMARK                         _______ _______ _______ _____ _____    ______ ____
ROOT
ATOM      1  C11 UNL     1     -15.768  93.527 137.614  0.00  0.00    +0.000 C 
ENDROOT
BRANCH   1   2
ATOM      2  C10 UNL     1     -15.605  92.092 138.029  0.00  0.00    +0.000 C 
ATOM      3  O2  UNL     1     -16.364  91.615 138.915  0.00  0.00    +0.000 OA
BRANCH   2   5
ATOM      4  C8  UNL     1     -13.668  91.749 136.541  0.00  0.00    +0.000 C 
ATOM      5  C9  UNL     1     -14.590  91.245 137.372  0.00  0.00    +0.000 C 
BRANCH   4  11
ATOM      6  C2  UNL     1     -12.857  90.176 134.721  0.00  0.00    +0.000 A 
ATOM      7  C3  UNL     1     -11.815  89.395 134.179  0.00  0.00    +0.000 A 
ATOM      8  C4  UNL     1     -10.552  89.374 134.785  0.00  0.00    +0.000 A 
ATOM      9  C5  UNL     1     -10.319  90.135 135.931  0.00  0.00    +0.000 A 
ATOM     10  C6  UNL     1     -11.343  90.904 136.483  0.00  0.00    +0.000 A 
ATOM     11  C7  UNL     1     -12.622  90.916 135.905  0.00  0.00    +0.000 A 
BRANCH   6  13
ATOM     12  C1  UNL     1     -14.467  91.229 133.114  0.00  0.00    +0.000 C 
ATOM     13  O1  UNL     1     -14.111  90.259 134.093  0.00  0.00    +0.000 OA
ENDBRANCH   6  13
BRANCH   8  14
ATOM     14  O6  UNL     1      -9.521  88.605 134.249  0.00  0.00    +0.000 OA
ATOM     15  H20 UNL     1      -9.263  87.711 134.648  0.00  0.00    +0.000 HD
ENDBRANCH   8  14
ENDBRANCH   4  11
ENDBRANCH   2   5
ENDBRANCH   1   2
BRANCH   1  16
ATOM     16  C12 UNL     1     -16.665  93.681 136.407  0.00  0.00    +0.000 C 
ATOM     17  O3  UNL     1     -17.532  92.803 136.150  0.00  0.00    +0.000 OA
BRANCH  16  18
ATOM     18  C13 UNL     1     -16.561  94.843 135.498  0.00  0.00    +0.000 C 
ATOM     19  C14 UNL     1     -15.555  95.012 134.627  0.00  0.00    +0.000 C 
BRANCH  19  20
ATOM     20  C15 UNL     1     -15.455  96.171 133.705  0.00  0.00    +0.000 A 
ATOM     21  C16 UNL     1     -16.327  97.276 133.783  0.00  0.00    +0.000 A 
ATOM     22  C17 UNL     1     -16.191  98.361 132.895  0.00  0.00    +0.000 A 
ATOM     23  C18 UNL     1     -15.170  98.341 131.935  0.00  0.00    +0.000 A 
ATOM     24  C19 UNL     1     -14.292  97.254 131.867  0.00  0.00    +0.000 A 
ATOM     25  C20 UNL     1     -14.429  96.181 132.749  0.00  0.00    +0.000 A 
BRANCH  23  26
ATOM     26  O4  UNL     1     -15.033  99.411 131.053  0.00  0.00    +0.000 OA
ATOM     27  H16 UNL     1     -15.119 100.372 131.366  0.00  0.00    +0.000 HD
ENDBRANCH  23  26
BRANCH  22  28
ATOM     28  O5  UNL     1     -17.045  99.476 132.938  0.00  0.00    +0.000 OA
ATOM     29  C21 UNL     1     -17.870  99.818 134.046  0.00  0.00    +0.000 C 
ENDBRANCH  22  28
ENDBRANCH  19  20
ENDBRANCH  16  18
ENDBRANCH   1  16
TORSDOF 10
ENDMDL
MODEL 7
REMARK VINA RESULT:      -4.8      2.127      4.445
REMARK  Name = .\curcumin.pdb
REMARK  12 active torsions:
REMARK  status: ('A' for Active; 'I' for Inactive)
REMARK    1  A    between atoms: C1_1  and  O1_2
REMARK    2  A    between atoms: O1_2  and  C2_3
REMARK    3  A    between atoms: C4_5  and  O6_27
REMARK    4  A    between atoms: C7_8  and  C8_9
REMARK    5  A    between atoms: C9_10  and  C10_11
REMARK    6  A    between atoms: C10_11  and  C11_13
REMARK    7  A    between atoms: C11_13  and  C12_14
REMARK    8  A    between atoms: C12_14  and  C13_16
REMARK    9  A    between atoms: C14_17  and  C15_18
REMARK   10  A    between atoms: C17_20  and  O5_25
REMARK   11  A    between atoms: C18_21  and  O4_24
REMARK   12  A    between atoms: O5_25  and  C21_26
REMARK                            x       y       z     vdW  Elec       q    Type
REMARK                         _______ _______ _______ _____ _____    ______ ____
ROOT
ATOM      1  C11 UNL     1     -10.955  90.888 134.814  0.00  0.00    +0.000 C 
ENDROOT
BRANCH   1   2
ATOM      2  C10 UNL     1     -11.911  89.917 134.180  0.00  0.00    +0.000 C 
ATOM      3  O2  UNL     1     -11.797  89.650 132.953  0.00  0.00    +0.000 OA
BRANCH   2   5
ATOM      4  C8  UNL     1     -14.193  89.728 135.096  0.00  0.00    +0.000 C 
ATOM      5  C9  UNL     1     -12.944  89.256 135.002  0.00  0.00    +0.000 C 
BRANCH   4  11
ATOM      6  C2  UNL     1     -16.589  89.503 135.905  0.00  0.00    +0.000 A 
ATOM      7  C3  UNL     1     -17.535  88.817 136.694  0.00  0.00    +0.000 A 
ATOM      8  C4  UNL     1     -17.162  87.684 137.428  0.00  0.00    +0.000 A 
ATOM      9  C5  UNL     1     -15.845  87.225 137.376  0.00  0.00    +0.000 A 
ATOM     10  C6  UNL     1     -14.897  87.900 136.608  0.00  0.00    +0.000 A 
ATOM     11  C7  UNL     1     -15.247  89.054 135.888  0.00  0.00    +0.000 A 
BRANCH   6  13
ATOM     12  C1  UNL     1     -17.224  91.911 135.615  0.00  0.00    +0.000 C 
ATOM     13  O1  UNL     1     -16.957  90.605 135.114  0.00  0.00    +0.000 OA
ENDBRANCH   6  13
BRANCH   8  14
ATOM     14  O6  UNL     1     -18.097  87.002 138.205  0.00  0.00    +0.000 OA
ATOM     15  H20 UNL     1     -18.946  87.450 138.528  0.00  0.00    +0.000 HD
ENDBRANCH   8  14
ENDBRANCH   4  11
ENDBRANCH   2   5
ENDBRANCH   1   2
BRANCH   1  16
ATOM     16  C12 UNL     1     -11.666  92.010 135.535  0.00  0.00    +0.000 C 
ATOM     17  O3  UNL     1     -11.807  91.966 136.786  0.00  0.00    +0.000 OA
BRANCH  16  18
ATOM     18  C13 UNL     1     -12.213  93.181 134.815  0.00  0.00    +0.000 C 
ATOM     19  C14 UNL     1     -13.525  93.368 134.599  0.00  0.00    +0.000 C 
BRANCH  19  20
ATOM     20  C15 UNL     1     -14.077  94.547 133.888  0.00  0.00    +0.000 A 
ATOM     21  C16 UNL     1     -15.076  95.369 134.449  0.00  0.00    +0.000 A 
ATOM     22  C17 UNL     1     -15.566  96.486 133.744  0.00  0.00    +0.000 A 
ATOM     23  C18 UNL     1     -15.043  96.784 132.478  0.00  0.00    +0.000 A 
ATOM     24  C19 UNL     1     -14.038  95.982 131.927  0.00  0.00    +0.000 A 
ATOM     25  C20 UNL     1     -13.555  94.876 132.628  0.00  0.00    +0.000 A 
BRANCH  23  26
ATOM     26  O4  UNL     1     -15.526  97.887 131.776  0.00  0.00    +0.000 OA
ATOM     27  H16 UNL     1     -14.899  98.541 131.318  0.00  0.00    +0.000 HD
ENDBRANCH  23  26
BRANCH  22  28
ATOM     28  O5  UNL     1     -16.565  97.323 134.267  0.00  0.00    +0.000 OA
ATOM     29  C21 UNL     1     -17.788  96.864 134.834  0.00  0.00    +0.000 C 
ENDBRANCH  22  28
ENDBRANCH  19  20
ENDBRANCH  16  18
ENDBRANCH   1  16
TORSDOF 10
ENDMDL
MODEL 8
REMARK VINA RESULT:      -4.7      2.374      8.039
REMARK  Name = .\curcumin.pdb
REMARK  12 active torsions:
REMARK  status: ('A' for Active; 'I' for Inactive)
REMARK    1  A    between atoms: C1_1  and  O1_2
REMARK    2  A    between atoms: O1_2  and  C2_3
REMARK    3  A    between atoms: C4_5  and  O6_27
REMARK    4  A    between atoms: C7_8  and  C8_9
REMARK    5  A    between atoms: C9_10  and  C10_11
REMARK    6  A    between atoms: C10_11  and  C11_13
REMARK    7  A    between atoms: C11_13  and  C12_14
REMARK    8  A    between atoms: C12_14  and  C13_16
REMARK    9  A    between atoms: C14_17  and  C15_18
REMARK   10  A    between atoms: C17_20  and  O5_25
REMARK   11  A    between atoms: C18_21  and  O4_24
REMARK   12  A    between atoms: O5_25  and  C21_26
REMARK                            x       y       z     vdW  Elec       q    Type
REMARK                         _______ _______ _______ _____ _____    ______ ____
ROOT
ATOM      1  C11 UNL     1     -11.131  90.690 134.417  0.00  0.00    +0.000 C 
ENDROOT
BRANCH   1   2
ATOM      2  C10 UNL     1     -11.618  91.849 135.241  0.00  0.00    +0.000 C 
ATOM      3  O2  UNL     1     -11.503  91.805 136.495  0.00  0.00    +0.000 OA
BRANCH   2   5
ATOM      4  C8  UNL     1     -13.504  93.242 134.477  0.00  0.00    +0.000 C 
ATOM      5  C9  UNL     1     -12.184  93.039 134.577  0.00  0.00    +0.000 C 
BRANCH   4  11
ATOM      6  C2  UNL     1     -15.151  95.174 134.430  0.00  0.00    +0.000 A 
ATOM      7  C3  UNL     1     -15.659  96.308 133.763  0.00  0.00    +0.000 A 
ATOM      8  C4  UNL     1     -15.097  96.734 132.553  0.00  0.00    +0.000 A 
ATOM      9  C5  UNL     1     -14.021  96.035 132.003  0.00  0.00    +0.000 A 
ATOM     10  C6  UNL     1     -13.514  94.907 132.647  0.00  0.00    +0.000 A 
ATOM     11  C7  UNL     1     -14.084  94.449 133.846  0.00  0.00    +0.000 A 
BRANCH   6  13
ATOM     12  C1  UNL     1     -16.702  93.812 135.852  0.00  0.00    +0.000 C 
ATOM     13  O1  UNL     1     -15.661  94.767 135.674  0.00  0.00    +0.000 OA
ENDBRANCH   6  13
BRANCH   8  14
ATOM     14  O6  UNL     1     -15.595  97.856 131.895  0.00  0.00    +0.000 OA
ATOM     15  H20 UNL     1     -14.980  98.560 131.504  0.00  0.00    +0.000 HD
ENDBRANCH   8  14
ENDBRANCH   4  11
ENDBRANCH   2   5
ENDBRANCH   1   2
BRANCH   1  16
ATOM     16  C12 UNL     1     -12.256  89.779 133.981  0.00  0.00    +0.000 C 
ATOM     17  O3  UNL     1     -12.403  89.498 132.761  0.00  0.00    +0.000 OA
BRANCH  16  18
ATOM     18  C13 UNL     1     -13.210  89.194 134.949  0.00  0.00    +0.000 C 
ATOM     19  C14 UNL     1     -14.467  89.636 135.106  0.00  0.00    +0.000 C 
BRANCH  19  20
ATOM     20  C15 UNL     1     -15.429  89.043 136.068  0.00  0.00    +0.000 A 
ATOM     21  C16 UNL     1     -16.123  89.819 137.019  0.00  0.00    +0.000 A 
ATOM     22  C17 UNL     1     -17.037  89.217 137.907  0.00  0.00    +0.000 A 
ATOM     23  C18 UNL     1     -17.261  87.835 137.831  0.00  0.00    +0.000 A 
ATOM     24  C19 UNL     1     -16.588  87.066 136.876  0.00  0.00    +0.000 A 
ATOM     25  C20 UNL     1     -15.684  87.665 135.997  0.00  0.00    +0.000 A 
BRANCH  23  26
ATOM     26  O4  UNL     1     -18.162  87.235 138.708  0.00  0.00    +0.000 OA
ATOM     27  H16 UNL     1     -18.604  86.347 138.492  0.00  0.00    +0.000 HD
ENDBRANCH  23  26
BRANCH  22  28
ATOM     28  O5  UNL     1     -17.741  89.955 138.872  0.00  0.00    +0.000 OA
ATOM     29  C21 UNL     1     -17.979  91.357 138.800  0.00  0.00    +0.000 C 
ENDBRANCH  22  28
ENDBRANCH  19  20
ENDBRANCH  16  18
ENDBRANCH   1  16
TORSDOF 10
ENDMDL
MODEL 9
REMARK VINA RESULT:      -4.6      2.284      5.138
REMARK  Name = .\curcumin.pdb
REMARK  12 active torsions:
REMARK  status: ('A' for Active; 'I' for Inactive)
REMARK    1  A    between atoms: C1_1  and  O1_2
REMARK    2  A    between atoms: O1_2  and  C2_3
REMARK    3  A    between atoms: C4_5  and  O6_27
REMARK    4  A    between atoms: C7_8  and  C8_9
REMARK    5  A    between atoms: C9_10  and  C10_11
REMARK    6  A    between atoms: C10_11  and  C11_13
REMARK    7  A    between atoms: C11_13  and  C12_14
REMARK    8  A    between atoms: C12_14  and  C13_16
REMARK    9  A    between atoms: C14_17  and  C15_18
REMARK   10  A    between atoms: C17_20  and  O5_25
REMARK   11  A    between atoms: C18_21  and  O4_24
REMARK   12  A    between atoms: O5_25  and  C21_26
REMARK                            x       y       z     vdW  Elec       q    Type
REMARK                         _______ _______ _______ _____ _____    ______ ____
ROOT
ATOM      1  C11 UNL     1     -10.142  89.344 134.843  0.00  0.00    +0.000 C 
ENDROOT
BRANCH   1   2
ATOM      2  C10 UNL     1     -10.467  89.397 136.309  0.00  0.00    +0.000 C 
ATOM      3  O2  UNL     1      -9.529  89.364 137.151  0.00  0.00    +0.000 OA
BRANCH   2   5
ATOM      4  C8  UNL     1     -12.318  90.607 137.400  0.00  0.00    +0.000 C 
ATOM      5  C9  UNL     1     -11.870  89.527 136.749  0.00  0.00    +0.000 C 
BRANCH   4  11
ATOM      6  C2  UNL     1     -14.188  91.888 138.545  0.00  0.00    +0.000 A 
ATOM      7  C3  UNL     1     -15.547  91.962 138.915  0.00  0.00    +0.000 A 
ATOM      8  C4  UNL     1     -16.443  90.954 138.538  0.00  0.00    +0.000 A 
ATOM      9  C5  UNL     1     -15.992  89.869 137.786  0.00  0.00    +0.000 A 
ATOM     10  C6  UNL     1     -14.649  89.778 137.422  0.00  0.00    +0.000 A 
ATOM     11  C7  UNL     1     -13.731  90.765 137.815  0.00  0.00    +0.000 A 
BRANCH   6  13
ATOM     12  C1  UNL     1     -13.353  94.243 138.344  0.00  0.00    +0.000 C 
ATOM     13  O1  UNL     1     -13.286  92.918 138.861  0.00  0.00    +0.000 OA
ENDBRANCH   6  13
BRANCH   8  14
ATOM     14  O6  UNL     1     -17.787  91.028 138.900  0.00  0.00    +0.000 OA
ATOM     15  H20 UNL     1     -18.112  91.678 139.607  0.00  0.00    +0.000 HD
ENDBRANCH   8  14
ENDBRANCH   4  11
ENDBRANCH   2   5
ENDBRANCH   1   2
BRANCH   1  16
ATOM     16  C12 UNL     1     -11.284  89.829 133.980  0.00  0.00    +0.000 C 
ATOM     17  O3  UNL     1     -11.862  89.032 133.193  0.00  0.00    +0.000 OA
BRANCH  16  18
ATOM     18  C13 UNL     1     -11.759  91.229 134.025  0.00  0.00    +0.000 C 
ATOM     19  C14 UNL     1     -13.049  91.567 134.179  0.00  0.00    +0.000 C 
BRANCH  19  20
ATOM     20  C15 UNL     1     -13.526  92.970 134.236  0.00  0.00    +0.000 A 
ATOM     21  C16 UNL     1     -14.754  93.328 134.830  0.00  0.00    +0.000 A 
ATOM     22  C17 UNL     1     -15.165  94.675 134.873  0.00  0.00    +0.000 A 
ATOM     23  C18 UNL     1     -14.336  95.665 134.329  0.00  0.00    +0.000 A 
ATOM     24  C19 UNL     1     -13.108  95.316 133.755  0.00  0.00    +0.000 A 
ATOM     25  C20 UNL     1     -12.704  93.980 133.715  0.00  0.00    +0.000 A 
BRANCH  23  26
ATOM     26  O4  UNL     1     -14.739  96.999 134.367  0.00  0.00    +0.000 OA
ATOM     27  H16 UNL     1     -15.079  97.475 133.538  0.00  0.00    +0.000 HD
ENDBRANCH  23  26
BRANCH  22  28
ATOM     28  O5  UNL     1     -16.384  95.069 135.449  0.00  0.00    +0.000 OA
ATOM     29  C21 UNL     1     -17.181  94.244 136.293  0.00  0.00    +0.000 C 
ENDBRANCH  22  28
ENDBRANCH  19  20
ENDBRANCH  16  18
ENDBRANCH   1  16
TORSDOF 10
ENDMDL
