MODEL 1
REMARK VINA RESULT:      12.7      0.000      0.000
REMARK  Name = .\curcumin.pdb
REMARK  12 active torsions:
REMARK  status: ('A' for Active; 'I' for Inactive)
REMARK    1  A    between atoms: C1_1  and  O1_2
REMARK    2  A    between atoms: O1_2  and  C2_3
REMARK    3  A    between atoms: C4_5  and  O6_27
REMARK    4  A    between atoms: C7_8  and  C8_9
REMARK    5  A    between atoms: C9_10  and  C10_11
REMARK    6  A    between atoms: C10_11  and  C11_13
REMARK    7  A    between atoms: C11_13  and  C12_14
REMARK    8  A    between atoms: C12_14  and  C13_16
REMARK    9  A    between atoms: C14_17  and  C15_18
REMARK   10  A    between atoms: C17_20  and  O5_25
REMARK   11  A    between atoms: C18_21  and  O4_24
REMARK   12  A    between atoms: O5_25  and  C21_26
REMARK                            x       y       z     vdW  Elec       q    Type
REMARK                         _______ _______ _______ _____ _____    ______ ____
ROOT
ATOM      1  C11 UNL     1       2.715  62.854  31.965  0.00  0.00    +0.000 C 
ENDROOT
BRANCH   1   2
ATOM      2  C10 UNL     1       3.680  62.359  33.005  0.00  0.00    +0.000 C 
ATOM      3  O2  UNL     1       3.590  62.789  34.186  0.00  0.00    +0.000 OA
BRANCH   2   5
ATOM      4  C8  UNL     1       5.994  61.507  32.930  0.00  0.00    +0.000 C 
ATOM      5  C9  UNL     1       4.694  61.348  32.648  0.00  0.00    +0.000 C 
BRANCH   4  11
ATOM      6  C2  UNL     1       8.373  60.811  32.384  0.00  0.00    +0.000 A 
ATOM      7  C3  UNL     1       9.286  59.783  32.071  0.00  0.00    +0.000 A 
ATOM      8  C4  UNL     1       8.864  58.449  32.014  0.00  0.00    +0.000 A 
ATOM      9  C5  UNL     1       7.531  58.130  32.274  0.00  0.00    +0.000 A 
ATOM     10  C6  UNL     1       6.615  59.138  32.576  0.00  0.00    +0.000 A 
ATOM     11  C7  UNL     1       7.015  60.484  32.609  0.00  0.00    +0.000 A 
BRANCH   6  13
ATOM     12  C1  UNL     1       9.551  62.853  31.532  0.00  0.00    +0.000 C 
ATOM     13  O1  UNL     1       8.789  62.148  32.506  0.00  0.00    +0.000 OA
ENDBRANCH   6  13
BRANCH   8  14
ATOM     14  O6  UNL     1       9.766  57.432  31.708  0.00  0.00    +0.000 OA
ATOM     15  H20 UNL     1      10.737  57.629  31.494  0.00  0.00    +0.000 HD
ENDBRANCH   8  14
ENDBRANCH   4  11
ENDBRANCH   2   5
ENDBRANCH   1   2
BRANCH   1  16
ATOM     16  C12 UNL     1       3.207  62.609  30.557  0.00  0.00    +0.000 C 
ATOM     17  O3  UNL     1       2.457  62.857  29.575  0.00  0.00    +0.000 OA
BRANCH  16  18
ATOM     18  C13 UNL     1       4.560  62.079  30.282  0.00  0.00    +0.000 C 
ATOM     19  C14 UNL     1       4.784  60.881  29.718  0.00  0.00    +0.000 C 
BRANCH  19  20
ATOM     20  C15 UNL     1       6.140  60.353  29.430  0.00  0.00    +0.000 A 
ATOM     21  C16 UNL     1       7.190  61.174  28.970  0.00  0.00    +0.000 A 
ATOM     22  C17 UNL     1       8.466  60.633  28.719  0.00  0.00    +0.000 A 
ATOM     23  C18 UNL     1       8.691  59.268  28.941  0.00  0.00    +0.000 A 
ATOM     24  C19 UNL     1       7.656  58.454  29.415  0.00  0.00    +0.000 A 
ATOM     25  C20 UNL     1       6.393  58.993  29.663  0.00  0.00    +0.000 A 
BRANCH  23  26
ATOM     26  O4  UNL     1       9.951  58.728  28.691  0.00  0.00    +0.000 OA
ATOM     27  H16 UNL     1      10.114  57.727  28.714  0.00  0.00    +0.000 HD
ENDBRANCH  23  26
BRANCH  22  28
ATOM     28  O5  UNL     1       9.534  61.418  28.254  0.00  0.00    +0.000 OA
ATOM     29  C21 UNL     1       9.745  62.782  28.602  0.00  0.00    +0.000 C 
ENDBRANCH  22  28
ENDBRANCH  19  20
ENDBRANCH  16  18
ENDBRANCH   1  16
TORSDOF 10
ENDMDL
MODEL 2
REMARK VINA RESULT:      12.9      2.423      5.335
REMARK  Name = .\curcumin.pdb
REMARK  12 active torsions:
REMARK  status: ('A' for Active; 'I' for Inactive)
REMARK    1  A    between atoms: C1_1  and  O1_2
REMARK    2  A    between atoms: O1_2  and  C2_3
REMARK    3  A    between atoms: C4_5  and  O6_27
REMARK    4  A    between atoms: C7_8  and  C8_9
REMARK    5  A    between atoms: C9_10  and  C10_11
REMARK    6  A    between atoms: C10_11  and  C11_13
REMARK    7  A    between atoms: C11_13  and  C12_14
REMARK    8  A    between atoms: C12_14  and  C13_16
REMARK    9  A    between atoms: C14_17  and  C15_18
REMARK   10  A    between atoms: C17_20  and  O5_25
REMARK   11  A    between atoms: C18_21  and  O4_24
REMARK   12  A    between atoms: O5_25  and  C21_26
REMARK                            x       y       z     vdW  Elec       q    Type
REMARK                         _______ _______ _______ _____ _____    ______ ____
ROOT
ATOM      1  C11 UNL     1       4.468  55.501  31.200  0.00  0.00    +0.000 C 
ENDROOT
BRANCH   1   2
ATOM      2  C10 UNL     1       3.638  56.430  30.360  0.00  0.00    +0.000 C 
ATOM      3  O2  UNL     1       2.455  56.108  30.068  0.00  0.00    +0.000 OA
BRANCH   2   5
ATOM      4  C8  UNL     1       5.485  58.044  30.099  0.00  0.00    +0.000 C 
ATOM      5  C9  UNL     1       4.197  57.723  29.919  0.00  0.00    +0.000 C 
BRANCH   4  11
ATOM      6  C2  UNL     1       5.335  60.534  29.629  0.00  0.00    +0.000 A 
ATOM      7  C3  UNL     1       5.951  61.710  29.154  0.00  0.00    +0.000 A 
ATOM      8  C4  UNL     1       7.281  61.690  28.716  0.00  0.00    +0.000 A 
ATOM      9  C5  UNL     1       8.007  60.498  28.754  0.00  0.00    +0.000 A 
ATOM     10  C6  UNL     1       7.406  59.326  29.212  0.00  0.00    +0.000 A 
ATOM     11  C7  UNL     1       6.065  59.322  29.628  0.00  0.00    +0.000 A 
BRANCH   6  13
ATOM     12  C1  UNL     1       3.128  61.652  30.038  0.00  0.00    +0.000 C 
ATOM     13  O1  UNL     1       4.022  60.547  30.129  0.00  0.00    +0.000 OA
ENDBRANCH   6  13
BRANCH   8  14
ATOM     14  O6  UNL     1       7.893  62.852  28.250  0.00  0.00    +0.000 OA
ATOM     15  H20 UNL     1       7.602  63.296  27.387  0.00  0.00    +0.000 HD
ENDBRANCH   8  14
ENDBRANCH   4  11
ENDBRANCH   2   5
ENDBRANCH   1   2
BRANCH   1  16
ATOM     16  C12 UNL     1       5.085  56.196  32.392  0.00  0.00    +0.000 C 
ATOM     17  O3  UNL     1       5.094  55.629  33.518  0.00  0.00    +0.000 OA
BRANCH  16  18
ATOM     18  C13 UNL     1       5.691  57.541  32.286  0.00  0.00    +0.000 C 
ATOM     19  C14 UNL     1       7.015  57.753  32.236  0.00  0.00    +0.000 C 
BRANCH  19  20
ATOM     20  C15 UNL     1       7.625  59.101  32.118  0.00  0.00    +0.000 A 
ATOM     21  C16 UNL     1       6.949  60.274  32.511  0.00  0.00    +0.000 A 
ATOM     22  C17 UNL     1       7.569  61.534  32.392  0.00  0.00    +0.000 A 
ATOM     23  C18 UNL     1       8.874  61.613  31.888  0.00  0.00    +0.000 A 
ATOM     24  C19 UNL     1       9.555  60.449  31.515  0.00  0.00    +0.000 A 
ATOM     25  C20 UNL     1       8.938  59.202  31.635  0.00  0.00    +0.000 A 
BRANCH  23  26
ATOM     26  O4  UNL     1       9.491  62.857  31.766  0.00  0.00    +0.000 OA
ATOM     27  H16 UNL     1       9.700  63.428  32.578  0.00  0.00    +0.000 HD
ENDBRANCH  23  26
BRANCH  22  28
ATOM     28  O5  UNL     1       6.924  62.724  32.765  0.00  0.00    +0.000 OA
ATOM     29  C21 UNL     1       5.520  62.856  32.958  0.00  0.00    +0.000 C 
ENDBRANCH  22  28
ENDBRANCH  19  20
ENDBRANCH  16  18
ENDBRANCH   1  16
TORSDOF 10
ENDMDL
