MODEL 1
REMARK VINA RESULT:       0.8      0.000      0.000
REMARK  Name = .\curcumin.pdb
REMARK  12 active torsions:
REMARK  status: ('A' for Active; 'I' for Inactive)
REMARK    1  A    between atoms: C1_1  and  O1_2
REMARK    2  A    between atoms: O1_2  and  C2_3
REMARK    3  A    between atoms: C4_5  and  O6_27
REMARK    4  A    between atoms: C7_8  and  C8_9
REMARK    5  A    between atoms: C9_10  and  C10_11
REMARK    6  A    between atoms: C10_11  and  C11_13
REMARK    7  A    between atoms: C11_13  and  C12_14
REMARK    8  A    between atoms: C12_14  and  C13_16
REMARK    9  A    between atoms: C14_17  and  C15_18
REMARK   10  A    between atoms: C17_20  and  O5_25
REMARK   11  A    between atoms: C18_21  and  O4_24
REMARK   12  A    between atoms: O5_25  and  C21_26
REMARK                            x       y       z     vdW  Elec       q    Type
REMARK                         _______ _______ _______ _____ _____    ______ ____
ROOT
ATOM      1  C11 UNL     1      15.256  77.919 104.202  0.00  0.00    +0.000 C 
ENDROOT
BRANCH   1   2
ATOM      2  C10 UNL     1      16.290  77.657 105.262  0.00  0.00    +0.000 C 
ATOM      3  O2  UNL     1      16.310  76.537 105.840  0.00  0.00    +0.000 OA
BRANCH   2   5
ATOM      4  C8  UNL     1      18.238  79.068 104.716  0.00  0.00    +0.000 C 
ATOM      5  C9  UNL     1      17.292  78.691 105.586  0.00  0.00    +0.000 C 
BRANCH   4  11
ATOM      6  C2  UNL     1      20.513  79.845 105.530  0.00  0.00    +0.000 A 
ATOM      7  C3  UNL     1      21.396  80.911 105.804  0.00  0.00    +0.000 A 
ATOM      8  C4  UNL     1      21.018  82.233 105.541  0.00  0.00    +0.000 A 
ATOM      9  C5  UNL     1      19.760  82.502 105.000  0.00  0.00    +0.000 A 
ATOM     10  C6  UNL     1      18.873  81.459 104.734  0.00  0.00    +0.000 A 
ATOM     11  C7  UNL     1      19.225  80.129 105.017  0.00  0.00    +0.000 A 
BRANCH   6  13
ATOM     12  C1  UNL     1      22.200  77.992 105.484  0.00  0.00    +0.000 C 
ATOM     13  O1  UNL     1      20.896  78.508 105.729  0.00  0.00    +0.000 OA
ENDBRANCH   6  13
BRANCH   8  14
ATOM     14  O6  UNL     1      21.890  83.287 105.808  0.00  0.00    +0.000 OA
ATOM     15  H20 UNL     1      22.157  83.950 105.089  0.00  0.00    +0.000 HD
ENDBRANCH   8  14
ENDBRANCH   4  11
ENDBRANCH   2   5
ENDBRANCH   1   2
BRANCH   1  16
ATOM     16  C12 UNL     1      15.765  77.617 102.812  0.00  0.00    +0.000 C 
ATOM     17  O3  UNL     1      15.365  76.588 102.204  0.00  0.00    +0.000 OA
BRANCH  16  18
ATOM     18  C13 UNL     1      16.733  78.498 102.124  0.00  0.00    +0.000 C 
ATOM     19  C14 UNL     1      17.900  78.065 101.622  0.00  0.00    +0.000 C 
BRANCH  19  20
ATOM     20  C15 UNL     1      18.867  78.945 100.921  0.00  0.00    +0.000 A 
ATOM     21  C16 UNL     1      19.779  79.769 101.612  0.00  0.00    +0.000 A 
ATOM     22  C17 UNL     1      20.689  80.582 100.907  0.00  0.00    +0.000 A 
ATOM     23  C18 UNL     1      20.689  80.558  99.505  0.00  0.00    +0.000 A 
ATOM     24  C19 UNL     1      19.798  79.727  98.817  0.00  0.00    +0.000 A 
ATOM     25  C20 UNL     1      18.899  78.923  99.519  0.00  0.00    +0.000 A 
BRANCH  23  26
ATOM     26  O4  UNL     1      21.586  81.362  98.803  0.00  0.00    +0.000 OA
ATOM     27  H16 UNL     1      21.865  82.273  99.149  0.00  0.00    +0.000 HD
ENDBRANCH  23  26
BRANCH  22  28
ATOM     28  O5  UNL     1      21.606  81.420 101.560  0.00  0.00    +0.000 OA
ATOM     29  C21 UNL     1      22.579  80.975 102.499  0.00  0.00    +0.000 C 
ENDBRANCH  22  28
ENDBRANCH  19  20
ENDBRANCH  16  18
ENDBRANCH   1  16
TORSDOF 10
ENDMDL
MODEL 2
REMARK VINA RESULT:       3.5      1.326      6.424
REMARK  Name = .\curcumin.pdb
REMARK  12 active torsions:
REMARK  status: ('A' for Active; 'I' for Inactive)
REMARK    1  A    between atoms: C1_1  and  O1_2
REMARK    2  A    between atoms: O1_2  and  C2_3
REMARK    3  A    between atoms: C4_5  and  O6_27
REMARK    4  A    between atoms: C7_8  and  C8_9
REMARK    5  A    between atoms: C9_10  and  C10_11
REMARK    6  A    between atoms: C10_11  and  C11_13
REMARK    7  A    between atoms: C11_13  and  C12_14
REMARK    8  A    between atoms: C12_14  and  C13_16
REMARK    9  A    between atoms: C14_17  and  C15_18
REMARK   10  A    between atoms: C17_20  and  O5_25
REMARK   11  A    between atoms: C18_21  and  O4_24
REMARK   12  A    between atoms: O5_25  and  C21_26
REMARK                            x       y       z     vdW  Elec       q    Type
REMARK                         _______ _______ _______ _____ _____    ______ ____
ROOT
ATOM      1  C11 UNL     1      21.523  82.102 105.732  0.00  0.00    +0.000 C 
ENDROOT
BRANCH   1   2
ATOM      2  C10 UNL     1      20.320  82.584 104.970  0.00  0.00    +0.000 C 
ATOM      3  O2  UNL     1      19.450  83.277 105.564  0.00  0.00    +0.000 OA
BRANCH   2   5
ATOM      4  C8  UNL     1      20.666  81.151 102.993  0.00  0.00    +0.000 C 
ATOM      5  C9  UNL     1      20.188  82.279 103.532  0.00  0.00    +0.000 C 
BRANCH   4  11
ATOM      6  C2  UNL     1      21.224  81.488 100.540  0.00  0.00    +0.000 A 
ATOM      7  C3  UNL     1      21.011  81.123  99.194  0.00  0.00    +0.000 A 
ATOM      8  C4  UNL     1      20.126  80.089  98.869  0.00  0.00    +0.000 A 
ATOM      9  C5  UNL     1      19.451  79.407  99.882  0.00  0.00    +0.000 A 
ATOM     10  C6  UNL     1      19.645  79.764 101.217  0.00  0.00    +0.000 A 
ATOM     11  C7  UNL     1      20.508  80.817 101.559  0.00  0.00    +0.000 A 
BRANCH   6  13
ATOM     12  C1  UNL     1      23.070  82.390 101.977  0.00  0.00    +0.000 C 
ATOM     13  O1  UNL     1      22.154  82.481 100.890  0.00  0.00    +0.000 OA
ENDBRANCH   6  13
BRANCH   8  14
ATOM     14  O6  UNL     1      19.917  79.725  97.540  0.00  0.00    +0.000 OA
ATOM     15  H20 UNL     1      20.507  79.043  97.077  0.00  0.00    +0.000 HD
ENDBRANCH   8  14
ENDBRANCH   4  11
ENDBRANCH   2   5
ENDBRANCH   1   2
BRANCH   1  16
ATOM     16  C12 UNL     1      21.683  80.600 105.668  0.00  0.00    +0.000 C 
ATOM     17  O3  UNL     1      22.822  80.081 105.812  0.00  0.00    +0.000 OA
BRANCH  16  18
ATOM     18  C13 UNL     1      20.532  79.699 105.440  0.00  0.00    +0.000 C 
ATOM     19  C14 UNL     1      19.330  80.127 105.023  0.00  0.00    +0.000 C 
BRANCH  19  20
ATOM     20  C15 UNL     1      18.178  79.224 104.781  0.00  0.00    +0.000 A 
ATOM     21  C16 UNL     1      17.970  78.578 103.545  0.00  0.00    +0.000 A 
ATOM     22  C17 UNL     1      16.868  77.720 103.361  0.00  0.00    +0.000 A 
ATOM     23  C18 UNL     1      15.981  77.500 104.423  0.00  0.00    +0.000 A 
ATOM     24  C19 UNL     1      16.196  78.125 105.657  0.00  0.00    +0.000 A 
ATOM     25  C20 UNL     1      17.289  78.975 105.837  0.00  0.00    +0.000 A 
BRANCH  23  26
ATOM     26  O4  UNL     1      14.889  76.654 104.246  0.00  0.00    +0.000 OA
ATOM     27  H16 UNL     1      14.917  75.882 103.588  0.00  0.00    +0.000 HD
ENDBRANCH  23  26
BRANCH  22  28
ATOM     28  O5  UNL     1      16.624  77.065 102.142  0.00  0.00    +0.000 OA
ATOM     29  C21 UNL     1      17.470  77.144 101.000  0.00  0.00    +0.000 C 
ENDBRANCH  22  28
ENDBRANCH  19  20
ENDBRANCH  16  18
ENDBRANCH   1  16
TORSDOF 10
ENDMDL
