MODEL 1
REMARK VINA RESULT:      -6.3      0.000      0.000
REMARK  Name = .\curcumin.pdb
REMARK  12 active torsions:
REMARK  status: ('A' for Active; 'I' for Inactive)
REMARK    1  A    between atoms: C1_1  and  O1_2
REMARK    2  A    between atoms: O1_2  and  C2_3
REMARK    3  A    between atoms: C4_5  and  O6_27
REMARK    4  A    between atoms: C7_8  and  C8_9
REMARK    5  A    between atoms: C9_10  and  C10_11
REMARK    6  A    between atoms: C10_11  and  C11_13
REMARK    7  A    between atoms: C11_13  and  C12_14
REMARK    8  A    between atoms: C12_14  and  C13_16
REMARK    9  A    between atoms: C14_17  and  C15_18
REMARK   10  A    between atoms: C17_20  and  O5_25
REMARK   11  A    between atoms: C18_21  and  O4_24
REMARK   12  A    between atoms: O5_25  and  C21_26
REMARK                            x       y       z     vdW  Elec       q    Type
REMARK                         _______ _______ _______ _____ _____    ______ ____
ROOT
ATOM      1  C11 UNL     1       1.993  51.241  11.370  0.00  0.00    +0.000 C 
ENDROOT
BRANCH   1   2
ATOM      2  C10 UNL     1       0.991  52.100  10.650  0.00  0.00    +0.000 C 
ATOM      3  O2  UNL     1      -0.236  51.955  10.895  0.00  0.00    +0.000 OA
BRANCH   2   5
ATOM      4  C8  UNL     1       2.399  54.022  10.011  0.00  0.00    +0.000 C 
ATOM      5  C9  UNL     1       1.453  53.129   9.697  0.00  0.00    +0.000 C 
BRANCH   4  11
ATOM      6  C2  UNL     1       3.872  55.998   9.401  0.00  0.00    +0.000 A 
ATOM      7  C3  UNL     1       4.287  56.939   8.437  0.00  0.00    +0.000 A 
ATOM      8  C4  UNL     1       3.765  56.905   7.138  0.00  0.00    +0.000 A 
ATOM      9  C5  UNL     1       2.829  55.929   6.791  0.00  0.00    +0.000 A 
ATOM     10  C6  UNL     1       2.403  54.998   7.738  0.00  0.00    +0.000 A 
ATOM     11  C7  UNL     1       2.895  55.035   9.052  0.00  0.00    +0.000 A 
BRANCH   6  13
ATOM     12  C1  UNL     1       4.669  57.131  11.491  0.00  0.00    +0.000 C 
ATOM     13  O1  UNL     1       4.429  55.977  10.691  0.00  0.00    +0.000 OA
ENDBRANCH   6  13
BRANCH   8  14
ATOM     14  O6  UNL     1       4.176  57.832   6.183  0.00  0.00    +0.000 OA
ATOM     15  H20 UNL     1       4.946  58.468   6.357  0.00  0.00    +0.000 HD
ENDBRANCH   8  14
ENDBRANCH   4  11
ENDBRANCH   2   5
ENDBRANCH   1   2
BRANCH   1  16
ATOM     16  C12 UNL     1       2.868  50.455  10.421  0.00  0.00    +0.000 C 
ATOM     17  O3  UNL     1       2.463  49.357   9.954  0.00  0.00    +0.000 OA
BRANCH  16  18
ATOM     18  C13 UNL     1       4.207  50.933  10.013  0.00  0.00    +0.000 C 
ATOM     19  C14 UNL     1       4.477  51.417   8.790  0.00  0.00    +0.000 C 
BRANCH  19  20
ATOM     20  C15 UNL     1       5.816  51.908   8.382  0.00  0.00    +0.000 A 
ATOM     21  C16 UNL     1       6.102  53.279   8.222  0.00  0.00    +0.000 A 
ATOM     22  C17 UNL     1       7.391  53.704   7.843  0.00  0.00    +0.000 A 
ATOM     23  C18 UNL     1       8.396  52.750   7.636  0.00  0.00    +0.000 A 
ATOM     24  C19 UNL     1       8.121  51.390   7.812  0.00  0.00    +0.000 A 
ATOM     25  C20 UNL     1       6.843  50.972   8.188  0.00  0.00    +0.000 A 
BRANCH  23  26
ATOM     26  O4  UNL     1       9.672  53.165   7.259  0.00  0.00    +0.000 OA
ATOM     27  H16 UNL     1      10.469  53.062   7.878  0.00  0.00    +0.000 HD
ENDBRANCH  23  26
BRANCH  22  28
ATOM     28  O5  UNL     1       7.711  55.060   7.666  0.00  0.00    +0.000 OA
ATOM     29  C21 UNL     1       7.991  55.968   8.727  0.00  0.00    +0.000 C 
ENDBRANCH  22  28
ENDBRANCH  19  20
ENDBRANCH  16  18
ENDBRANCH   1  16
TORSDOF 10
ENDMDL
MODEL 2
REMARK VINA RESULT:      -6.3      2.889      6.524
REMARK  Name = .\curcumin.pdb
REMARK  12 active torsions:
REMARK  status: ('A' for Active; 'I' for Inactive)
REMARK    1  A    between atoms: C1_1  and  O1_2
REMARK    2  A    between atoms: O1_2  and  C2_3
REMARK    3  A    between atoms: C4_5  and  O6_27
REMARK    4  A    between atoms: C7_8  and  C8_9
REMARK    5  A    between atoms: C9_10  and  C10_11
REMARK    6  A    between atoms: C10_11  and  C11_13
REMARK    7  A    between atoms: C11_13  and  C12_14
REMARK    8  A    between atoms: C12_14  and  C13_16
REMARK    9  A    between atoms: C14_17  and  C15_18
REMARK   10  A    between atoms: C17_20  and  O5_25
REMARK   11  A    between atoms: C18_21  and  O4_24
REMARK   12  A    between atoms: O5_25  and  C21_26
REMARK                            x       y       z     vdW  Elec       q    Type
REMARK                         _______ _______ _______ _____ _____    ______ ____
ROOT
ATOM      1  C11 UNL     1       4.619  55.343   7.229  0.00  0.00    +0.000 C 
ENDROOT
BRANCH   1   2
ATOM      2  C10 UNL     1       4.882  56.754   7.676  0.00  0.00    +0.000 C 
ATOM      3  O2  UNL     1       5.618  57.497   6.972  0.00  0.00    +0.000 OA
BRANCH   2   5
ATOM      4  C8  UNL     1       4.957  57.821   9.898  0.00  0.00    +0.000 C 
ATOM      5  C9  UNL     1       4.248  57.269   8.906  0.00  0.00    +0.000 C 
BRANCH   4  11
ATOM      6  C2  UNL     1       4.385  59.749  11.448  0.00  0.00    +0.000 A 
ATOM      7  C3  UNL     1       3.773  60.200  12.636  0.00  0.00    +0.000 A 
ATOM      8  C4  UNL     1       3.089  59.304  13.468  0.00  0.00    +0.000 A 
ATOM      9  C5  UNL     1       3.007  57.956  13.119  0.00  0.00    +0.000 A 
ATOM     10  C6  UNL     1       3.615  57.495  11.951  0.00  0.00    +0.000 A 
ATOM     11  C7  UNL     1       4.329  58.374  11.120  0.00  0.00    +0.000 A 
BRANCH   6  13
ATOM     12  C1  UNL     1       6.405  60.981  10.618  0.00  0.00    +0.000 C 
ATOM     13  O1  UNL     1       5.023  60.641  10.570  0.00  0.00    +0.000 OA
ENDBRANCH   6  13
BRANCH   8  14
ATOM     14  O6  UNL     1       2.481  59.748  14.641  0.00  0.00    +0.000 OA
ATOM     15  H20 UNL     1       1.490  59.956  14.679  0.00  0.00    +0.000 HD
ENDBRANCH   8  14
ENDBRANCH   4  11
ENDBRANCH   2   5
ENDBRANCH   1   2
BRANCH   1  16
ATOM     16  C12 UNL     1       3.147  55.004   7.225  0.00  0.00    +0.000 C 
ATOM     17  O3  UNL     1       2.361  55.616   6.453  0.00  0.00    +0.000 OA
BRANCH  16  18
ATOM     18  C13 UNL     1       2.581  53.962   8.109  0.00  0.00    +0.000 C 
ATOM     19  C14 UNL     1       2.976  53.776   9.378  0.00  0.00    +0.000 C 
BRANCH  19  20
ATOM     20  C15 UNL     1       2.402  52.739  10.271  0.00  0.00    +0.000 A 
ATOM     21  C16 UNL     1       3.195  51.971  11.147  0.00  0.00    +0.000 A 
ATOM     22  C17 UNL     1       2.608  51.004  11.987  0.00  0.00    +0.000 A 
ATOM     23  C18 UNL     1       1.219  50.817  11.954  0.00  0.00    +0.000 A 
ATOM     24  C19 UNL     1       0.426  51.590  11.098  0.00  0.00    +0.000 A 
ATOM     25  C20 UNL     1       1.012  52.548  10.269  0.00  0.00    +0.000 A 
BRANCH  23  26
ATOM     26  O4  UNL     1       0.633  49.860  12.780  0.00  0.00    +0.000 OA
ATOM     27  H16 UNL     1       0.171  50.117  13.646  0.00  0.00    +0.000 HD
ENDBRANCH  23  26
BRANCH  22  28
ATOM     28  O5  UNL     1       3.366  50.215  12.867  0.00  0.00    +0.000 OA
ATOM     29  C21 UNL     1       4.386  49.308  12.463  0.00  0.00    +0.000 C 
ENDBRANCH  22  28
ENDBRANCH  19  20
ENDBRANCH  16  18
ENDBRANCH   1  16
TORSDOF 10
ENDMDL
MODEL 3
REMARK VINA RESULT:      -6.3      3.136      6.262
REMARK  Name = .\curcumin.pdb
REMARK  12 active torsions:
REMARK  status: ('A' for Active; 'I' for Inactive)
REMARK    1  A    between atoms: C1_1  and  O1_2
REMARK    2  A    between atoms: O1_2  and  C2_3
REMARK    3  A    between atoms: C4_5  and  O6_27
REMARK    4  A    between atoms: C7_8  and  C8_9
REMARK    5  A    between atoms: C9_10  and  C10_11
REMARK    6  A    between atoms: C10_11  and  C11_13
REMARK    7  A    between atoms: C11_13  and  C12_14
REMARK    8  A    between atoms: C12_14  and  C13_16
REMARK    9  A    between atoms: C14_17  and  C15_18
REMARK   10  A    between atoms: C17_20  and  O5_25
REMARK   11  A    between atoms: C18_21  and  O4_24
REMARK   12  A    between atoms: O5_25  and  C21_26
REMARK                            x       y       z     vdW  Elec       q    Type
REMARK                         _______ _______ _______ _____ _____    ______ ____
ROOT
ATOM      1  C11 UNL     1       1.850  51.262  11.454  0.00  0.00    +0.000 C 
ENDROOT
BRANCH   1   2
ATOM      2  C10 UNL     1       1.570  49.800  11.244  0.00  0.00    +0.000 C 
ATOM      3  O2  UNL     1       1.733  48.996  12.201  0.00  0.00    +0.000 OA
BRANCH   2   5
ATOM      4  C8  UNL     1       1.835  49.320   8.839  0.00  0.00    +0.000 C 
ATOM      5  C9  UNL     1       1.071  49.325   9.938  0.00  0.00    +0.000 C 
BRANCH   4  11
ATOM      6  C2  UNL     1       1.641  49.472   6.312  0.00  0.00    +0.000 A 
ATOM      7  C3  UNL     1       1.141  48.935   5.108  0.00  0.00    +0.000 A 
ATOM      8  C4  UNL     1       0.399  47.747   5.112  0.00  0.00    +0.000 A 
ATOM      9  C5  UNL     1       0.156  47.083   6.315  0.00  0.00    +0.000 A 
ATOM     10  C6  UNL     1       0.636  47.608   7.515  0.00  0.00    +0.000 A 
ATOM     11  C7  UNL     1       1.358  48.813   7.533  0.00  0.00    +0.000 A 
BRANCH   6  13
ATOM     12  C1  UNL     1       3.530  50.871   5.442  0.00  0.00    +0.000 C 
ATOM     13  O1  UNL     1       2.438  50.629   6.322  0.00  0.00    +0.000 OA
ENDBRANCH   6  13
BRANCH   8  14
ATOM     14  O6  UNL     1      -0.092  47.213   3.922  0.00  0.00    +0.000 OA
ATOM     15  H20 UNL     1      -0.795  46.483   3.918  0.00  0.00    +0.000 HD
ENDBRANCH   8  14
ENDBRANCH   4  11
ENDBRANCH   2   5
ENDBRANCH   1   2
BRANCH   1  16
ATOM     16  C12 UNL     1       0.833  52.148  10.773  0.00  0.00    +0.000 C 
ATOM     17  O3  UNL     1      -0.398  51.966  10.975  0.00  0.00    +0.000 OA
BRANCH  16  18
ATOM     18  C13 UNL     1       1.233  53.241   9.861  0.00  0.00    +0.000 C 
ATOM     19  C14 UNL     1       2.468  53.767   9.836  0.00  0.00    +0.000 C 
BRANCH  19  20
ATOM     20  C15 UNL     1       2.875  54.856   8.913  0.00  0.00    +0.000 A 
ATOM     21  C16 UNL     1       3.790  55.861   9.287  0.00  0.00    +0.000 A 
ATOM     22  C17 UNL     1       4.158  56.871   8.376  0.00  0.00    +0.000 A 
ATOM     23  C18 UNL     1       3.615  56.864   7.084  0.00  0.00    +0.000 A 
ATOM     24  C19 UNL     1       2.721  55.857   6.704  0.00  0.00    +0.000 A 
ATOM     25  C20 UNL     1       2.359  54.857   7.609  0.00  0.00    +0.000 A 
BRANCH  23  26
ATOM     26  O4  UNL     1       3.975  57.862   6.180  0.00  0.00    +0.000 OA
ATOM     27  H16 UNL     1       4.834  57.808   5.644  0.00  0.00    +0.000 HD
ENDBRANCH  23  26
BRANCH  22  28
ATOM     28  O5  UNL     1       5.061  57.893   8.714  0.00  0.00    +0.000 OA
ATOM     29  C21 UNL     1       5.871  57.899   9.885  0.00  0.00    +0.000 C 
ENDBRANCH  22  28
ENDBRANCH  19  20
ENDBRANCH  16  18
ENDBRANCH   1  16
TORSDOF 10
ENDMDL
MODEL 4
REMARK VINA RESULT:      -6.2      2.260      6.565
REMARK  Name = .\curcumin.pdb
REMARK  12 active torsions:
REMARK  status: ('A' for Active; 'I' for Inactive)
REMARK    1  A    between atoms: C1_1  and  O1_2
REMARK    2  A    between atoms: O1_2  and  C2_3
REMARK    3  A    between atoms: C4_5  and  O6_27
REMARK    4  A    between atoms: C7_8  and  C8_9
REMARK    5  A    between atoms: C9_10  and  C10_11
REMARK    6  A    between atoms: C10_11  and  C11_13
REMARK    7  A    between atoms: C11_13  and  C12_14
REMARK    8  A    between atoms: C12_14  and  C13_16
REMARK    9  A    between atoms: C14_17  and  C15_18
REMARK   10  A    between atoms: C17_20  and  O5_25
REMARK   11  A    between atoms: C18_21  and  O4_24
REMARK   12  A    between atoms: O5_25  and  C21_26
REMARK                            x       y       z     vdW  Elec       q    Type
REMARK                         _______ _______ _______ _____ _____    ______ ____
ROOT
ATOM      1  C11 UNL     1       5.802  57.806   9.749  0.00  0.00    +0.000 C 
ENDROOT
BRANCH   1   2
ATOM      2  C10 UNL     1       6.766  56.831   9.133  0.00  0.00    +0.000 C 
ATOM      3  O2  UNL     1       7.933  56.738   9.599  0.00  0.00    +0.000 OA
BRANCH   2   5
ATOM      4  C8  UNL     1       6.141  54.648   8.169  0.00  0.00    +0.000 C 
ATOM      5  C9  UNL     1       6.329  55.965   8.020  0.00  0.00    +0.000 C 
BRANCH   4  11
ATOM      6  C2  UNL     1       6.556  53.123   6.182  0.00  0.00    +0.000 A 
ATOM      7  C3  UNL     1       6.030  52.318   5.151  0.00  0.00    +0.000 A 
ATOM      8  C4  UNL     1       4.647  52.138   5.023  0.00  0.00    +0.000 A 
ATOM      9  C5  UNL     1       3.779  52.755   5.925  0.00  0.00    +0.000 A 
ATOM     10  C6  UNL     1       4.286  53.563   6.944  0.00  0.00    +0.000 A 
ATOM     11  C7  UNL     1       5.668  53.776   7.070  0.00  0.00    +0.000 A 
BRANCH   6  13
ATOM     12  C1  UNL     1       8.770  54.159   5.625  0.00  0.00    +0.000 C 
ATOM     13  O1  UNL     1       7.941  53.267   6.364  0.00  0.00    +0.000 OA
ENDBRANCH   6  13
BRANCH   8  14
ATOM     14  O6  UNL     1       4.126  51.340   4.007  0.00  0.00    +0.000 OA
ATOM     15  H20 UNL     1       4.488  50.411   3.823  0.00  0.00    +0.000 HD
ENDBRANCH   8  14
ENDBRANCH   4  11
ENDBRANCH   2   5
ENDBRANCH   1   2
BRANCH   1  16
ATOM     16  C12 UNL     1       5.183  57.279  11.023  0.00  0.00    +0.000 C 
ATOM     17  O3  UNL     1       5.291  57.934  12.094  0.00  0.00    +0.000 OA
BRANCH  16  18
ATOM     18  C13 UNL     1       4.441  56.000  11.062  0.00  0.00    +0.000 C 
ATOM     19  C14 UNL     1       3.458  55.690  10.202  0.00  0.00    +0.000 C 
BRANCH  19  20
ATOM     20  C15 UNL     1       2.720  54.403  10.232  0.00  0.00    +0.000 A 
ATOM     21  C16 UNL     1       3.311  53.203  10.677  0.00  0.00    +0.000 A 
ATOM     22  C17 UNL     1       2.571  52.004  10.699  0.00  0.00    +0.000 A 
ATOM     23  C18 UNL     1       1.233  52.014  10.285  0.00  0.00    +0.000 A 
ATOM     24  C19 UNL     1       0.638  53.207   9.860  0.00  0.00    +0.000 A 
ATOM     25  C20 UNL     1       1.373  54.393   9.840  0.00  0.00    +0.000 A 
BRANCH  23  26
ATOM     26  O4  UNL     1       0.497  50.830  10.302  0.00  0.00    +0.000 OA
ATOM     27  H16 UNL     1       0.851  49.978   9.881  0.00  0.00    +0.000 HD
ENDBRANCH  23  26
BRANCH  22  28
ATOM     28  O5  UNL     1       3.128  50.788  11.128  0.00  0.00    +0.000 OA
ATOM     29  C21 UNL     1       3.397  50.459  12.487  0.00  0.00    +0.000 C 
ENDBRANCH  22  28
ENDBRANCH  19  20
ENDBRANCH  16  18
ENDBRANCH   1  16
TORSDOF 10
ENDMDL
MODEL 5
REMARK VINA RESULT:      -6.1      2.174      5.695
REMARK  Name = .\curcumin.pdb
REMARK  12 active torsions:
REMARK  status: ('A' for Active; 'I' for Inactive)
REMARK    1  A    between atoms: C1_1  and  O1_2
REMARK    2  A    between atoms: O1_2  and  C2_3
REMARK    3  A    between atoms: C4_5  and  O6_27
REMARK    4  A    between atoms: C7_8  and  C8_9
REMARK    5  A    between atoms: C9_10  and  C10_11
REMARK    6  A    between atoms: C10_11  and  C11_13
REMARK    7  A    between atoms: C11_13  and  C12_14
REMARK    8  A    between atoms: C12_14  and  C13_16
REMARK    9  A    between atoms: C14_17  and  C15_18
REMARK   10  A    between atoms: C17_20  and  O5_25
REMARK   11  A    between atoms: C18_21  and  O4_24
REMARK   12  A    between atoms: O5_25  and  C21_26
REMARK                            x       y       z     vdW  Elec       q    Type
REMARK                         _______ _______ _______ _____ _____    ______ ____
ROOT
ATOM      1  C11 UNL     1       5.988  59.838  10.486  0.00  0.00    +0.000 C 
ENDROOT
BRANCH   1   2
ATOM      2  C10 UNL     1       5.364  58.687  11.223  0.00  0.00    +0.000 C 
ATOM      3  O2  UNL     1       5.666  58.490  12.431  0.00  0.00    +0.000 OA
BRANCH   2   5
ATOM      4  C8  UNL     1       4.635  56.548  10.234  0.00  0.00    +0.000 C 
ATOM      5  C9  UNL     1       4.377  57.825  10.544  0.00  0.00    +0.000 C 
BRANCH   4  11
ATOM      6  C2  UNL     1       3.573  55.497   8.181  0.00  0.00    +0.000 A 
ATOM      7  C3  UNL     1       2.590  54.646   7.635  0.00  0.00    +0.000 A 
ATOM      8  C4  UNL     1       1.710  53.948   8.470  0.00  0.00    +0.000 A 
ATOM      9  C5  UNL     1       1.807  54.088   9.856  0.00  0.00    +0.000 A 
ATOM     10  C6  UNL     1       2.768  54.934  10.409  0.00  0.00    +0.000 A 
ATOM     11  C7  UNL     1       3.641  55.663   9.585  0.00  0.00    +0.000 A 
BRANCH   6  13
ATOM     12  C1  UNL     1       4.199  57.254   6.506  0.00  0.00    +0.000 C 
ATOM     13  O1  UNL     1       4.505  56.159   7.364  0.00  0.00    +0.000 OA
ENDBRANCH   6  13
BRANCH   8  14
ATOM     14  O6  UNL     1       0.740  53.104   7.932  0.00  0.00    +0.000 OA
ATOM     15  H20 UNL     1      -0.243  53.350   7.942  0.00  0.00    +0.000 HD
ENDBRANCH   8  14
ENDBRANCH   4  11
ENDBRANCH   2   5
ENDBRANCH   1   2
BRANCH   1  16
ATOM     16  C12 UNL     1       7.383  59.523   9.998  0.00  0.00    +0.000 C 
ATOM     17  O3  UNL     1       8.352  60.253  10.341  0.00  0.00    +0.000 OA
BRANCH  16  18
ATOM     18  C13 UNL     1       7.661  58.369   9.115  0.00  0.00    +0.000 C 
ATOM     19  C14 UNL     1       8.219  57.227   9.547  0.00  0.00    +0.000 C 
BRANCH  19  20
ATOM     20  C15 UNL     1       8.488  56.063   8.666  0.00  0.00    +0.000 A 
ATOM     21  C16 UNL     1       7.551  55.027   8.474  0.00  0.00    +0.000 A 
ATOM     22  C17 UNL     1       7.842  53.945   7.621  0.00  0.00    +0.000 A 
ATOM     23  C18 UNL     1       9.072  53.910   6.950  0.00  0.00    +0.000 A 
ATOM     24  C19 UNL     1       9.997  54.945   7.123  0.00  0.00    +0.000 A 
ATOM     25  C20 UNL     1       9.705  56.017   7.970  0.00  0.00    +0.000 A 
BRANCH  23  26
ATOM     26  O4  UNL     1       9.366  52.840   6.105  0.00  0.00    +0.000 OA
ATOM     27  H16 UNL     1       9.388  52.950   5.097  0.00  0.00    +0.000 HD
ENDBRANCH  23  26
BRANCH  22  28
ATOM     28  O5  UNL     1       6.937  52.892   7.410  0.00  0.00    +0.000 OA
ATOM     29  C21 UNL     1       5.887  52.539   8.305  0.00  0.00    +0.000 C 
ENDBRANCH  22  28
ENDBRANCH  19  20
ENDBRANCH  16  18
ENDBRANCH   1  16
TORSDOF 10
ENDMDL
MODEL 6
REMARK VINA RESULT:      -6.1      1.343      5.052
REMARK  Name = .\curcumin.pdb
REMARK  12 active torsions:
REMARK  status: ('A' for Active; 'I' for Inactive)
REMARK    1  A    between atoms: C1_1  and  O1_2
REMARK    2  A    between atoms: O1_2  and  C2_3
REMARK    3  A    between atoms: C4_5  and  O6_27
REMARK    4  A    between atoms: C7_8  and  C8_9
REMARK    5  A    between atoms: C9_10  and  C10_11
REMARK    6  A    between atoms: C10_11  and  C11_13
REMARK    7  A    between atoms: C11_13  and  C12_14
REMARK    8  A    between atoms: C12_14  and  C13_16
REMARK    9  A    between atoms: C14_17  and  C15_18
REMARK   10  A    between atoms: C17_20  and  O5_25
REMARK   11  A    between atoms: C18_21  and  O4_24
REMARK   12  A    between atoms: O5_25  and  C21_26
REMARK                            x       y       z     vdW  Elec       q    Type
REMARK                         _______ _______ _______ _____ _____    ______ ____
ROOT
ATOM      1  C11 UNL     1       1.772  51.091  11.371  0.00  0.00    +0.000 C 
ENDROOT
BRANCH   1   2
ATOM      2  C10 UNL     1       2.397  50.102  10.426  0.00  0.00    +0.000 C 
ATOM      3  O2  UNL     1       1.995  48.908  10.428  0.00  0.00    +0.000 OA
BRANCH   2   5
ATOM      4  C8  UNL     1       4.564  51.148   9.888  0.00  0.00    +0.000 C 
ATOM      5  C9  UNL     1       3.441  50.545   9.481  0.00  0.00    +0.000 C 
BRANCH   4  11
ATOM      6  C2  UNL     1       6.730  50.727   8.633  0.00  0.00    +0.000 A 
ATOM      7  C3  UNL     1       7.718  51.196   7.743  0.00  0.00    +0.000 A 
ATOM      8  C4  UNL     1       7.605  52.463   7.157  0.00  0.00    +0.000 A 
ATOM      9  C5  UNL     1       6.502  53.268   7.449  0.00  0.00    +0.000 A 
ATOM     10  C6  UNL     1       5.523  52.819   8.335  0.00  0.00    +0.000 A 
ATOM     11  C7  UNL     1       5.635  51.564   8.953  0.00  0.00    +0.000 A 
BRANCH   6  13
ATOM     12  C1  UNL     1       7.787  48.994  10.105  0.00  0.00    +0.000 C 
ATOM     13  O1  UNL     1       6.795  49.435   9.183  0.00  0.00    +0.000 OA
ENDBRANCH   6  13
BRANCH   8  14
ATOM     14  O6  UNL     1       8.578  52.927   6.274  0.00  0.00    +0.000 OA
ATOM     15  H20 UNL     1       9.550  53.006   6.550  0.00  0.00    +0.000 HD
ENDBRANCH   8  14
ENDBRANCH   4  11
ENDBRANCH   2   5
ENDBRANCH   1   2
BRANCH   1  16
ATOM     16  C12 UNL     1       0.840  52.051  10.669  0.00  0.00    +0.000 C 
ATOM     17  O3  UNL     1      -0.401  51.993  10.880  0.00  0.00    +0.000 OA
BRANCH  16  18
ATOM     18  C13 UNL     1       1.337  53.076   9.725  0.00  0.00    +0.000 C 
ATOM     19  C14 UNL     1       2.290  53.967  10.038  0.00  0.00    +0.000 C 
BRANCH  19  20
ATOM     20  C15 UNL     1       2.799  54.988   9.089  0.00  0.00    +0.000 A 
ATOM     21  C16 UNL     1       3.731  55.976   9.469  0.00  0.00    +0.000 A 
ATOM     22  C17 UNL     1       4.198  56.920   8.533  0.00  0.00    +0.000 A 
ATOM     23  C18 UNL     1       3.735  56.865   7.211  0.00  0.00    +0.000 A 
ATOM     24  C19 UNL     1       2.825  55.875   6.826  0.00  0.00    +0.000 A 
ATOM     25  C20 UNL     1       2.365  54.940   7.756  0.00  0.00    +0.000 A 
BRANCH  23  26
ATOM     26  O4  UNL     1       4.192  57.799   6.282  0.00  0.00    +0.000 OA
ATOM     27  H16 UNL     1       3.587  58.162   5.553  0.00  0.00    +0.000 HD
ENDBRANCH  23  26
BRANCH  22  28
ATOM     28  O5  UNL     1       5.120  57.923   8.876  0.00  0.00    +0.000 OA
ATOM     29  C21 UNL     1       6.490  57.688   9.184  0.00  0.00    +0.000 C 
ENDBRANCH  22  28
ENDBRANCH  19  20
ENDBRANCH  16  18
ENDBRANCH   1  16
TORSDOF 10
ENDMDL
MODEL 7
REMARK VINA RESULT:      -6.0      1.691      5.604
REMARK  Name = .\curcumin.pdb
REMARK  12 active torsions:
REMARK  status: ('A' for Active; 'I' for Inactive)
REMARK    1  A    between atoms: C1_1  and  O1_2
REMARK    2  A    between atoms: O1_2  and  C2_3
REMARK    3  A    between atoms: C4_5  and  O6_27
REMARK    4  A    between atoms: C7_8  and  C8_9
REMARK    5  A    between atoms: C9_10  and  C10_11
REMARK    6  A    between atoms: C10_11  and  C11_13
REMARK    7  A    between atoms: C11_13  and  C12_14
REMARK    8  A    between atoms: C12_14  and  C13_16
REMARK    9  A    between atoms: C14_17  and  C15_18
REMARK   10  A    between atoms: C17_20  and  O5_25
REMARK   11  A    between atoms: C18_21  and  O4_24
REMARK   12  A    between atoms: O5_25  and  C21_26
REMARK                            x       y       z     vdW  Elec       q    Type
REMARK                         _______ _______ _______ _____ _____    ______ ____
ROOT
ATOM      1  C11 UNL     1       1.357  51.204  11.156  0.00  0.00    +0.000 C 
ENDROOT
BRANCH   1   2
ATOM      2  C10 UNL     1       1.732  50.211  10.092  0.00  0.00    +0.000 C 
ATOM      3  O2  UNL     1       0.835  49.740   9.343  0.00  0.00    +0.000 OA
BRANCH   2   5
ATOM      4  C8  UNL     1       4.113  50.732   9.710  0.00  0.00    +0.000 C 
ATOM      5  C9  UNL     1       3.146  49.827   9.908  0.00  0.00    +0.000 C 
BRANCH   4  11
ATOM      6  C2  UNL     1       6.366  50.919   8.556  0.00  0.00    +0.000 A 
ATOM      7  C3  UNL     1       7.712  50.508   8.467  0.00  0.00    +0.000 A 
ATOM      8  C4  UNL     1       8.236  49.584   9.379  0.00  0.00    +0.000 A 
ATOM      9  C5  UNL     1       7.423  49.067  10.389  0.00  0.00    +0.000 A 
ATOM     10  C6  UNL     1       6.087  49.458  10.483  0.00  0.00    +0.000 A 
ATOM     11  C7  UNL     1       5.538  50.362   9.559  0.00  0.00    +0.000 A 
BRANCH   6  13
ATOM     12  C1  UNL     1       6.015  53.296   7.839  0.00  0.00    +0.000 C 
ATOM     13  O1  UNL     1       5.839  51.891   7.688  0.00  0.00    +0.000 OA
ENDBRANCH   6  13
BRANCH   8  14
ATOM     14  O6  UNL     1       9.567  49.180   9.295  0.00  0.00    +0.000 OA
ATOM     15  H20 UNL     1      10.319  49.750   9.663  0.00  0.00    +0.000 HD
ENDBRANCH   8  14
ENDBRANCH   4  11
ENDBRANCH   2   5
ENDBRANCH   1   2
BRANCH   1  16
ATOM     16  C12 UNL     1       0.477  52.312  10.626  0.00  0.00    +0.000 C 
ATOM     17  O3  UNL     1      -0.748  52.342  10.924  0.00  0.00    +0.000 OA
BRANCH  16  18
ATOM     18  C13 UNL     1       1.006  53.384   9.755  0.00  0.00    +0.000 C 
ATOM     19  C14 UNL     1       2.254  53.867   9.853  0.00  0.00    +0.000 C 
BRANCH  19  20
ATOM     20  C15 UNL     1       2.791  54.933   8.972  0.00  0.00    +0.000 A 
ATOM     21  C16 UNL     1       3.698  55.909   9.433  0.00  0.00    +0.000 A 
ATOM     22  C17 UNL     1       4.192  56.899   8.560  0.00  0.00    +0.000 A 
ATOM     23  C18 UNL     1       3.784  56.899   7.219  0.00  0.00    +0.000 A 
ATOM     24  C19 UNL     1       2.899  55.921   6.754  0.00  0.00    +0.000 A 
ATOM     25  C20 UNL     1       2.411  54.942   7.622  0.00  0.00    +0.000 A 
BRANCH  23  26
ATOM     26  O4  UNL     1       4.269  57.877   6.352  0.00  0.00    +0.000 OA
ATOM     27  H16 UNL     1       5.030  57.687   5.709  0.00  0.00    +0.000 HD
ENDBRANCH  23  26
BRANCH  22  28
ATOM     28  O5  UNL     1       5.091  57.892   8.984  0.00  0.00    +0.000 OA
ATOM     29  C21 UNL     1       6.458  57.658   9.307  0.00  0.00    +0.000 C 
ENDBRANCH  22  28
ENDBRANCH  19  20
ENDBRANCH  16  18
ENDBRANCH   1  16
TORSDOF 10
ENDMDL
MODEL 8
REMARK VINA RESULT:      -5.9      2.141      6.503
REMARK  Name = .\curcumin.pdb
REMARK  12 active torsions:
REMARK  status: ('A' for Active; 'I' for Inactive)
REMARK    1  A    between atoms: C1_1  and  O1_2
REMARK    2  A    between atoms: O1_2  and  C2_3
REMARK    3  A    between atoms: C4_5  and  O6_27
REMARK    4  A    between atoms: C7_8  and  C8_9
REMARK    5  A    between atoms: C9_10  and  C10_11
REMARK    6  A    between atoms: C10_11  and  C11_13
REMARK    7  A    between atoms: C11_13  and  C12_14
REMARK    8  A    between atoms: C12_14  and  C13_16
REMARK    9  A    between atoms: C14_17  and  C15_18
REMARK   10  A    between atoms: C17_20  and  O5_25
REMARK   11  A    between atoms: C18_21  and  O4_24
REMARK   12  A    between atoms: O5_25  and  C21_26
REMARK                            x       y       z     vdW  Elec       q    Type
REMARK                         _______ _______ _______ _____ _____    ______ ____
ROOT
ATOM      1  C11 UNL     1       7.769  54.240   7.013  0.00  0.00    +0.000 C 
ENDROOT
BRANCH   1   2
ATOM      2  C10 UNL     1       7.229  53.080   7.802  0.00  0.00    +0.000 C 
ATOM      3  O2  UNL     1       8.028  52.222   8.264  0.00  0.00    +0.000 OA
BRANCH   2   5
ATOM      4  C8  UNL     1       5.121  53.874   8.807  0.00  0.00    +0.000 C 
ATOM      5  C9  UNL     1       5.780  52.977   8.062  0.00  0.00    +0.000 C 
BRANCH   4  11
ATOM      6  C2  UNL     1       2.717  54.364   8.154  0.00  0.00    +0.000 A 
ATOM      7  C3  UNL     1       1.343  54.266   8.454  0.00  0.00    +0.000 A 
ATOM      8  C4  UNL     1       0.912  53.591   9.603  0.00  0.00    +0.000 A 
ATOM      9  C5  UNL     1       1.847  53.005  10.457  0.00  0.00    +0.000 A 
ATOM     10  C6  UNL     1       3.210  53.104  10.177  0.00  0.00    +0.000 A 
ATOM     11  C7  UNL     1       3.661  53.801   9.045  0.00  0.00    +0.000 A 
BRANCH   6  13
ATOM     12  C1  UNL     1       3.247  56.392   6.777  0.00  0.00    +0.000 C 
ATOM     13  O1  UNL     1       3.166  54.984   6.975  0.00  0.00    +0.000 OA
ENDBRANCH   6  13
BRANCH   8  14
ATOM     14  O6  UNL     1      -0.446  53.489   9.899  0.00  0.00    +0.000 OA
ATOM     15  H20 UNL     1      -1.112  53.137   9.222  0.00  0.00    +0.000 HD
ENDBRANCH   8  14
ENDBRANCH   4  11
ENDBRANCH   2   5
ENDBRANCH   1   2
BRANCH   1  16
ATOM     16  C12 UNL     1       8.735  55.083   7.814  0.00  0.00    +0.000 C 
ATOM     17  O3  UNL     1       9.975  54.878   7.724  0.00  0.00    +0.000 OA
BRANCH  16  18
ATOM     18  C13 UNL     1       8.272  56.160   8.716  0.00  0.00    +0.000 C 
ATOM     19  C14 UNL     1       7.090  56.780   8.581  0.00  0.00    +0.000 C 
BRANCH  19  20
ATOM     20  C15 UNL     1       6.618  57.852   9.492  0.00  0.00    +0.000 A 
ATOM     21  C16 UNL     1       5.380  57.784  10.163  0.00  0.00    +0.000 A 
ATOM     22  C17 UNL     1       4.975  58.820  11.028  0.00  0.00    +0.000 A 
ATOM     23  C18 UNL     1       5.820  59.920  11.228  0.00  0.00    +0.000 A 
ATOM     24  C19 UNL     1       7.057  59.982  10.577  0.00  0.00    +0.000 A 
ATOM     25  C20 UNL     1       7.456  58.954   9.721  0.00  0.00    +0.000 A 
BRANCH  23  26
ATOM     26  O4  UNL     1       5.423  60.948  12.081  0.00  0.00    +0.000 OA
ATOM     27  H16 UNL     1       4.443  61.164  12.232  0.00  0.00    +0.000 HD
ENDBRANCH  23  26
BRANCH  22  28
ATOM     28  O5  UNL     1       3.746  58.790  11.709  0.00  0.00    +0.000 OA
ATOM     29  C21 UNL     1       3.533  58.147  12.961  0.00  0.00    +0.000 C 
ENDBRANCH  22  28
ENDBRANCH  19  20
ENDBRANCH  16  18
ENDBRANCH   1  16
TORSDOF 10
ENDMDL
MODEL 9
REMARK VINA RESULT:      -5.8      1.486      2.577
REMARK  Name = .\curcumin.pdb
REMARK  12 active torsions:
REMARK  status: ('A' for Active; 'I' for Inactive)
REMARK    1  A    between atoms: C1_1  and  O1_2
REMARK    2  A    between atoms: O1_2  and  C2_3
REMARK    3  A    between atoms: C4_5  and  O6_27
REMARK    4  A    between atoms: C7_8  and  C8_9
REMARK    5  A    between atoms: C9_10  and  C10_11
REMARK    6  A    between atoms: C10_11  and  C11_13
REMARK    7  A    between atoms: C11_13  and  C12_14
REMARK    8  A    between atoms: C12_14  and  C13_16
REMARK    9  A    between atoms: C14_17  and  C15_18
REMARK   10  A    between atoms: C17_20  and  O5_25
REMARK   11  A    between atoms: C18_21  and  O4_24
REMARK   12  A    between atoms: O5_25  and  C21_26
REMARK                            x       y       z     vdW  Elec       q    Type
REMARK                         _______ _______ _______ _____ _____    ______ ____
ROOT
ATOM      1  C11 UNL     1       1.352  52.153   9.778  0.00  0.00    +0.000 C 
ENDROOT
BRANCH   1   2
ATOM      2  C10 UNL     1       1.296  53.550   9.226  0.00  0.00    +0.000 C 
ATOM      3  O2  UNL     1       0.400  53.849   8.392  0.00  0.00    +0.000 OA
BRANCH   2   5
ATOM      4  C8  UNL     1       3.145  55.143   8.869  0.00  0.00    +0.000 C 
ATOM      5  C9  UNL     1       2.261  54.565   9.692  0.00  0.00    +0.000 C 
BRANCH   4  11
ATOM      6  C2  UNL     1       4.980  56.841   8.428  0.00  0.00    +0.000 A 
ATOM      7  C3  UNL     1       5.863  57.819   8.931  0.00  0.00    +0.000 A 
ATOM      8  C4  UNL     1       5.842  58.167  10.288  0.00  0.00    +0.000 A 
ATOM      9  C5  UNL     1       4.938  57.546  11.150  0.00  0.00    +0.000 A 
ATOM     10  C6  UNL     1       4.066  56.570  10.668  0.00  0.00    +0.000 A 
ATOM     11  C7  UNL     1       4.092  56.189   9.317  0.00  0.00    +0.000 A 
BRANCH   6  13
ATOM     12  C1  UNL     1       4.749  57.465   6.011  0.00  0.00    +0.000 C 
ATOM     13  O1  UNL     1       4.943  56.522   7.060  0.00  0.00    +0.000 OA
ENDBRANCH   6  13
BRANCH   8  14
ATOM     14  O6  UNL     1       6.711  59.135  10.785  0.00  0.00    +0.000 OA
ATOM     15  H20 UNL     1       7.690  58.934  10.956  0.00  0.00    +0.000 HD
ENDBRANCH   8  14
ENDBRANCH   4  11
ENDBRANCH   2   5
ENDBRANCH   1   2
BRANCH   1  16
ATOM     16  C12 UNL     1       2.140  51.213   8.894  0.00  0.00    +0.000 C 
ATOM     17  O3  UNL     1       1.541  50.340   8.211  0.00  0.00    +0.000 OA
BRANCH  16  18
ATOM     18  C13 UNL     1       3.614  51.281   8.797  0.00  0.00    +0.000 C 
ATOM     19  C14 UNL     1       4.261  51.958   7.835  0.00  0.00    +0.000 C 
BRANCH  19  20
ATOM     20  C15 UNL     1       5.739  52.037   7.743  0.00  0.00    +0.000 A 
ATOM     21  C16 UNL     1       6.427  53.265   7.663  0.00  0.00    +0.000 A 
ATOM     22  C17 UNL     1       7.834  53.297   7.588  0.00  0.00    +0.000 A 
ATOM     23  C18 UNL     1       8.551  52.092   7.605  0.00  0.00    +0.000 A 
ATOM     24  C19 UNL     1       7.872  50.873   7.703  0.00  0.00    +0.000 A 
ATOM     25  C20 UNL     1       6.478  50.845   7.778  0.00  0.00    +0.000 A 
BRANCH  23  26
ATOM     26  O4  UNL     1       9.942  52.118   7.529  0.00  0.00    +0.000 OA
ATOM     27  H16 UNL     1      10.463  52.985   7.608  0.00  0.00    +0.000 HD
ENDBRANCH  23  26
BRANCH  22  28
ATOM     28  O5  UNL     1       8.553  54.500   7.499  0.00  0.00    +0.000 OA
ATOM     29  C21 UNL     1       8.710  55.426   8.569  0.00  0.00    +0.000 C 
ENDBRANCH  22  28
ENDBRANCH  19  20
ENDBRANCH  16  18
ENDBRANCH   1  16
TORSDOF 10
ENDMDL
