MODEL 1
REMARK VINA RESULT:      -5.9      0.000      0.000
REMARK  Name = .\curcumin.pdb
REMARK  12 active torsions:
REMARK  status: ('A' for Active; 'I' for Inactive)
REMARK    1  A    between atoms: C1_1  and  O1_2
REMARK    2  A    between atoms: O1_2  and  C2_3
REMARK    3  A    between atoms: C4_5  and  O6_27
REMARK    4  A    between atoms: C7_8  and  C8_9
REMARK    5  A    between atoms: C9_10  and  C10_11
REMARK    6  A    between atoms: C10_11  and  C11_13
REMARK    7  A    between atoms: C11_13  and  C12_14
REMARK    8  A    between atoms: C12_14  and  C13_16
REMARK    9  A    between atoms: C14_17  and  C15_18
REMARK   10  A    between atoms: C17_20  and  O5_25
REMARK   11  A    between atoms: C18_21  and  O4_24
REMARK   12  A    between atoms: O5_25  and  C21_26
REMARK                            x       y       z     vdW  Elec       q    Type
REMARK                         _______ _______ _______ _____ _____    ______ ____
ROOT
ATOM      1  C11 UNL     1       9.206  64.932  75.384  0.00  0.00    +0.000 C 
ENDROOT
BRANCH   1   2
ATOM      2  C10 UNL     1       9.829  64.804  76.746  0.00  0.00    +0.000 C 
ATOM      3  O2  UNL     1      11.064  64.570  76.841  0.00  0.00    +0.000 OA
BRANCH   2   5
ATOM      4  C8  UNL     1       9.370  65.804  78.953  0.00  0.00    +0.000 C 
ATOM      5  C9  UNL     1       9.003  64.991  77.955  0.00  0.00    +0.000 C 
BRANCH   4  11
ATOM      6  C2  UNL     1       8.835  65.451  81.410  0.00  0.00    +0.000 A 
ATOM      7  C3  UNL     1       7.984  65.700  82.505  0.00  0.00    +0.000 A 
ATOM      8  C4  UNL     1       6.868  66.535  82.365  0.00  0.00    +0.000 A 
ATOM      9  C5  UNL     1       6.597  67.131  81.132  0.00  0.00    +0.000 A 
ATOM     10  C6  UNL     1       7.426  66.885  80.037  0.00  0.00    +0.000 A 
ATOM     11  C7  UNL     1       8.533  66.029  80.154  0.00  0.00    +0.000 A 
BRANCH   6  13
ATOM     12  C1  UNL     1      11.277  65.167  81.901  0.00  0.00    +0.000 C 
ATOM     13  O1  UNL     1       9.993  64.665  81.546  0.00  0.00    +0.000 OA
ENDBRANCH   6  13
BRANCH   8  14
ATOM     14  O6  UNL     1       6.028  66.785  83.448  0.00  0.00    +0.000 OA
ATOM     15  H20 UNL     1       5.441  67.610  83.485  0.00  0.00    +0.000 HD
ENDBRANCH   8  14
ENDBRANCH   4  11
ENDBRANCH   2   5
ENDBRANCH   1   2
BRANCH   1  16
ATOM     16  C12 UNL     1       9.053  66.372  74.952  0.00  0.00    +0.000 C 
ATOM     17  O3  UNL     1       8.764  66.644  73.756  0.00  0.00    +0.000 OA
BRANCH  16  18
ATOM     18  C13 UNL     1       9.234  67.496  75.896  0.00  0.00    +0.000 C 
ATOM     19  C14 UNL     1       8.211  68.168  76.448  0.00  0.00    +0.000 C 
BRANCH  19  20
ATOM     20  C15 UNL     1       8.390  69.288  77.405  0.00  0.00    +0.000 A 
ATOM     21  C16 UNL     1       7.369  70.223  77.674  0.00  0.00    +0.000 A 
ATOM     22  C17 UNL     1       7.576  71.265  78.599  0.00  0.00    +0.000 A 
ATOM     23  C18 UNL     1       8.807  71.362  79.262  0.00  0.00    +0.000 A 
ATOM     24  C19 UNL     1       9.816  70.425  79.011  0.00  0.00    +0.000 A 
ATOM     25  C20 UNL     1       9.607  69.393  78.095  0.00  0.00    +0.000 A 
BRANCH  23  26
ATOM     26  O4  UNL     1       9.018  72.393  80.176  0.00  0.00    +0.000 OA
ATOM     27  H16 UNL     1       9.613  72.270  80.989  0.00  0.00    +0.000 HD
ENDBRANCH  23  26
BRANCH  22  28
ATOM     28  O5  UNL     1       6.586  72.219  78.887  0.00  0.00    +0.000 OA
ATOM     29  C21 UNL     1       6.383  73.420  78.150  0.00  0.00    +0.000 C 
ENDBRANCH  22  28
ENDBRANCH  19  20
ENDBRANCH  16  18
ENDBRANCH   1  16
TORSDOF 10
ENDMDL
MODEL 2
REMARK VINA RESULT:      -5.8      1.588      2.654
REMARK  Name = .\curcumin.pdb
REMARK  12 active torsions:
REMARK  status: ('A' for Active; 'I' for Inactive)
REMARK    1  A    between atoms: C1_1  and  O1_2
REMARK    2  A    between atoms: O1_2  and  C2_3
REMARK    3  A    between atoms: C4_5  and  O6_27
REMARK    4  A    between atoms: C7_8  and  C8_9
REMARK    5  A    between atoms: C9_10  and  C10_11
REMARK    6  A    between atoms: C10_11  and  C11_13
REMARK    7  A    between atoms: C11_13  and  C12_14
REMARK    8  A    between atoms: C12_14  and  C13_16
REMARK    9  A    between atoms: C14_17  and  C15_18
REMARK   10  A    between atoms: C17_20  and  O5_25
REMARK   11  A    between atoms: C18_21  and  O4_24
REMARK   12  A    between atoms: O5_25  and  C21_26
REMARK                            x       y       z     vdW  Elec       q    Type
REMARK                         _______ _______ _______ _____ _____    ______ ____
ROOT
ATOM      1  C11 UNL     1      10.407  65.420  76.221  0.00  0.00    +0.000 C 
ENDROOT
BRANCH   1   2
ATOM      2  C10 UNL     1      10.849  65.715  77.627  0.00  0.00    +0.000 C 
ATOM      3  O2  UNL     1      12.050  66.031  77.843  0.00  0.00    +0.000 OA
BRANCH   2   5
ATOM      4  C8  UNL     1       9.273  66.775  79.200  0.00  0.00    +0.000 C 
ATOM      5  C9  UNL     1       9.871  65.673  78.732  0.00  0.00    +0.000 C 
BRANCH   4  11
ATOM      6  C2  UNL     1       6.884  66.946  80.042  0.00  0.00    +0.000 A 
ATOM      7  C3  UNL     1       5.983  66.911  81.126  0.00  0.00    +0.000 A 
ATOM      8  C4  UNL     1       6.440  66.645  82.423  0.00  0.00    +0.000 A 
ATOM      9  C5  UNL     1       7.797  66.408  82.647  0.00  0.00    +0.000 A 
ATOM     10  C6  UNL     1       8.700  66.449  81.585  0.00  0.00    +0.000 A 
ATOM     11  C7  UNL     1       8.264  66.741  80.283  0.00  0.00    +0.000 A 
BRANCH   6  13
ATOM     12  C1  UNL     1       6.215  66.115  77.773  0.00  0.00    +0.000 C 
ATOM     13  O1  UNL     1       6.437  67.150  78.725  0.00  0.00    +0.000 OA
ENDBRANCH   6  13
BRANCH   8  14
ATOM     14  O6  UNL     1       5.550  66.607  83.495  0.00  0.00    +0.000 OA
ATOM     15  H20 UNL     1       5.846  66.320  84.421  0.00  0.00    +0.000 HD
ENDBRANCH   8  14
ENDBRANCH   4  11
ENDBRANCH   2   5
ENDBRANCH   1   2
BRANCH   1  16
ATOM     16  C12 UNL     1      10.246  66.673  75.392  0.00  0.00    +0.000 C 
ATOM     17  O3  UNL     1      10.585  66.673  74.178  0.00  0.00    +0.000 OA
BRANCH  16  18
ATOM     18  C13 UNL     1       9.696  67.923  75.960  0.00  0.00    +0.000 C 
ATOM     19  C14 UNL     1       8.407  68.279  75.851  0.00  0.00    +0.000 C 
BRANCH  19  20
ATOM     20  C15 UNL     1       7.851  69.527  76.430  0.00  0.00    +0.000 A 
ATOM     21  C16 UNL     1       8.156  69.955  77.739  0.00  0.00    +0.000 A 
ATOM     22  C17 UNL     1       7.614  71.152  78.247  0.00  0.00    +0.000 A 
ATOM     23  C18 UNL     1       6.774  71.926  77.435  0.00  0.00    +0.000 A 
ATOM     24  C19 UNL     1       6.484  71.514  76.130  0.00  0.00    +0.000 A 
ATOM     25  C20 UNL     1       7.023  70.327  75.629  0.00  0.00    +0.000 A 
BRANCH  23  26
ATOM     26  O4  UNL     1       6.233  73.110  77.934  0.00  0.00    +0.000 OA
ATOM     27  H16 UNL     1       6.583  74.017  77.643  0.00  0.00    +0.000 HD
ENDBRANCH  23  26
BRANCH  22  28
ATOM     28  O5  UNL     1       7.889  71.606  79.547  0.00  0.00    +0.000 OA
ATOM     29  C21 UNL     1       8.525  70.829  80.556  0.00  0.00    +0.000 C 
ENDBRANCH  22  28
ENDBRANCH  19  20
ENDBRANCH  16  18
ENDBRANCH   1  16
TORSDOF 10
ENDMDL
MODEL 3
REMARK VINA RESULT:      -5.7      1.826      6.067
REMARK  Name = .\curcumin.pdb
REMARK  12 active torsions:
REMARK  status: ('A' for Active; 'I' for Inactive)
REMARK    1  A    between atoms: C1_1  and  O1_2
REMARK    2  A    between atoms: O1_2  and  C2_3
REMARK    3  A    between atoms: C4_5  and  O6_27
REMARK    4  A    between atoms: C7_8  and  C8_9
REMARK    5  A    between atoms: C9_10  and  C10_11
REMARK    6  A    between atoms: C10_11  and  C11_13
REMARK    7  A    between atoms: C11_13  and  C12_14
REMARK    8  A    between atoms: C12_14  and  C13_16
REMARK    9  A    between atoms: C14_17  and  C15_18
REMARK   10  A    between atoms: C17_20  and  O5_25
REMARK   11  A    between atoms: C18_21  and  O4_24
REMARK   12  A    between atoms: O5_25  and  C21_26
REMARK                            x       y       z     vdW  Elec       q    Type
REMARK                         _______ _______ _______ _____ _____    ______ ____
ROOT
ATOM      1  C11 UNL     1       9.051  66.153  75.820  0.00  0.00    +0.000 C 
ENDROOT
BRANCH   1   2
ATOM      2  C10 UNL     1       8.909  67.379  74.961  0.00  0.00    +0.000 C 
ATOM      3  O2  UNL     1       9.347  67.358  73.779  0.00  0.00    +0.000 OA
BRANCH   2   5
ATOM      4  C8  UNL     1       8.406  69.003  76.748  0.00  0.00    +0.000 C 
ATOM      5  C9  UNL     1       8.227  68.575  75.492  0.00  0.00    +0.000 C 
BRANCH   4  11
ATOM      6  C2  UNL     1       7.963  70.677  78.604  0.00  0.00    +0.000 A 
ATOM      7  C3  UNL     1       7.299  71.841  79.044  0.00  0.00    +0.000 A 
ATOM      8  C4  UNL     1       6.468  72.558  78.174  0.00  0.00    +0.000 A 
ATOM      9  C5  UNL     1       6.298  72.123  76.859  0.00  0.00    +0.000 A 
ATOM     10  C6  UNL     1       6.941  70.968  76.413  0.00  0.00    +0.000 A 
ATOM     11  C7  UNL     1       7.755  70.222  77.280  0.00  0.00    +0.000 A 
BRANCH   6  13
ATOM     12  C1  UNL     1       8.466  69.269  80.616  0.00  0.00    +0.000 C 
ATOM     13  O1  UNL     1       8.848  69.979  79.442  0.00  0.00    +0.000 OA
ENDBRANCH   6  13
BRANCH   8  14
ATOM     14  O6  UNL     1       5.814  73.710  78.606  0.00  0.00    +0.000 OA
ATOM     15  H20 UNL     1       6.087  74.189  79.456  0.00  0.00    +0.000 HD
ENDBRANCH   8  14
ENDBRANCH   4  11
ENDBRANCH   2   5
ENDBRANCH   1   2
BRANCH   1  16
ATOM     16  C12 UNL     1       7.737  65.434  76.020  0.00  0.00    +0.000 C 
ATOM     17  O3  UNL     1       7.033  65.118  75.024  0.00  0.00    +0.000 OA
BRANCH  16  18
ATOM     18  C13 UNL     1       7.236  65.080  77.366  0.00  0.00    +0.000 C 
ATOM     19  C14 UNL     1       7.158  65.956  78.379  0.00  0.00    +0.000 C 
BRANCH  19  20
ATOM     20  C15 UNL     1       6.644  65.606  79.727  0.00  0.00    +0.000 A 
ATOM     21  C16 UNL     1       7.455  65.648  80.880  0.00  0.00    +0.000 A 
ATOM     22  C17 UNL     1       6.924  65.318  82.143  0.00  0.00    +0.000 A 
ATOM     23  C18 UNL     1       5.574  64.957  82.248  0.00  0.00    +0.000 A 
ATOM     24  C19 UNL     1       4.762  64.933  81.109  0.00  0.00    +0.000 A 
ATOM     25  C20 UNL     1       5.291  65.261  79.859  0.00  0.00    +0.000 A 
BRANCH  23  26
ATOM     26  O4  UNL     1       5.045  64.628  83.495  0.00  0.00    +0.000 OA
ATOM     27  H16 UNL     1       5.470  64.955  84.356  0.00  0.00    +0.000 HD
ENDBRANCH  23  26
BRANCH  22  28
ATOM     28  O5  UNL     1       7.702  65.341  83.312  0.00  0.00    +0.000 OA
ATOM     29  C21 UNL     1       9.082  64.996  83.370  0.00  0.00    +0.000 C 
ENDBRANCH  22  28
ENDBRANCH  19  20
ENDBRANCH  16  18
ENDBRANCH   1  16
TORSDOF 10
ENDMDL
MODEL 4
REMARK VINA RESULT:      -5.1      1.820      6.308
REMARK  Name = .\curcumin.pdb
REMARK  12 active torsions:
REMARK  status: ('A' for Active; 'I' for Inactive)
REMARK    1  A    between atoms: C1_1  and  O1_2
REMARK    2  A    between atoms: O1_2  and  C2_3
REMARK    3  A    between atoms: C4_5  and  O6_27
REMARK    4  A    between atoms: C7_8  and  C8_9
REMARK    5  A    between atoms: C9_10  and  C10_11
REMARK    6  A    between atoms: C10_11  and  C11_13
REMARK    7  A    between atoms: C11_13  and  C12_14
REMARK    8  A    between atoms: C12_14  and  C13_16
REMARK    9  A    between atoms: C14_17  and  C15_18
REMARK   10  A    between atoms: C17_20  and  O5_25
REMARK   11  A    between atoms: C18_21  and  O4_24
REMARK   12  A    between atoms: O5_25  and  C21_26
REMARK                            x       y       z     vdW  Elec       q    Type
REMARK                         _______ _______ _______ _____ _____    ______ ____
ROOT
ATOM      1  C11 UNL     1       6.654  72.652  77.091  0.00  0.00    +0.000 C 
ENDROOT
BRANCH   1   2
ATOM      2  C10 UNL     1       6.680  71.632  75.986  0.00  0.00    +0.000 C 
ATOM      3  O2  UNL     1       6.051  71.863  74.919  0.00  0.00    +0.000 OA
BRANCH   2   5
ATOM      4  C8  UNL     1       7.052  69.214  75.671  0.00  0.00    +0.000 C 
ATOM      5  C9  UNL     1       7.470  70.395  76.143  0.00  0.00    +0.000 C 
BRANCH   4  11
ATOM      6  C2  UNL     1       7.414  66.857  76.541  0.00  0.00    +0.000 A 
ATOM      7  C3  UNL     1       8.237  65.714  76.618  0.00  0.00    +0.000 A 
ATOM      8  C4  UNL     1       9.460  65.670  75.937  0.00  0.00    +0.000 A 
ATOM      9  C5  UNL     1       9.867  66.762  75.170  0.00  0.00    +0.000 A 
ATOM     10  C6  UNL     1       9.068  67.902  75.092  0.00  0.00    +0.000 A 
ATOM     11  C7  UNL     1       7.852  67.974  75.791  0.00  0.00    +0.000 A 
BRANCH   6  13
ATOM     12  C1  UNL     1       5.828  66.217  78.374  0.00  0.00    +0.000 C 
ATOM     13  O1  UNL     1       6.157  66.897  77.167  0.00  0.00    +0.000 OA
ENDBRANCH   6  13
BRANCH   8  14
ATOM     14  O6  UNL     1      10.273  64.541  76.010  0.00  0.00    +0.000 OA
ATOM     15  H20 UNL     1      10.740  64.277  76.870  0.00  0.00    +0.000 HD
ENDBRANCH   8  14
ENDBRANCH   4  11
ENDBRANCH   2   5
ENDBRANCH   1   2
BRANCH   1  16
ATOM     16  C12 UNL     1       6.775  72.023  78.460  0.00  0.00    +0.000 C 
ATOM     17  O3  UNL     1       6.053  72.434  79.408  0.00  0.00    +0.000 OA
BRANCH  16  18
ATOM     18  C13 UNL     1       7.725  70.923  78.735  0.00  0.00    +0.000 C 
ATOM     19  C14 UNL     1       7.397  69.820  79.425  0.00  0.00    +0.000 C 
BRANCH  19  20
ATOM     20  C15 UNL     1       8.344  68.710  79.692  0.00  0.00    +0.000 A 
ATOM     21  C16 UNL     1       8.115  67.743  80.693  0.00  0.00    +0.000 A 
ATOM     22  C17 UNL     1       9.036  66.699  80.907  0.00  0.00    +0.000 A 
ATOM     23  C18 UNL     1      10.183  66.619  80.107  0.00  0.00    +0.000 A 
ATOM     24  C19 UNL     1      10.405  67.565  79.100  0.00  0.00    +0.000 A 
ATOM     25  C20 UNL     1       9.490  68.598  78.890  0.00  0.00    +0.000 A 
BRANCH  23  26
ATOM     26  O4  UNL     1      11.099  65.589  80.316  0.00  0.00    +0.000 OA
ATOM     27  H16 UNL     1      10.796  64.632  80.469  0.00  0.00    +0.000 HD
ENDBRANCH  23  26
BRANCH  22  28
ATOM     28  O5  UNL     1       8.845  65.723  81.899  0.00  0.00    +0.000 OA
ATOM     29  C21 UNL     1       7.574  65.242  82.323  0.00  0.00    +0.000 C 
ENDBRANCH  22  28
ENDBRANCH  19  20
ENDBRANCH  16  18
ENDBRANCH   1  16
TORSDOF 10
ENDMDL
MODEL 5
REMARK VINA RESULT:      -3.6      1.783      5.778
REMARK  Name = .\curcumin.pdb
REMARK  12 active torsions:
REMARK  status: ('A' for Active; 'I' for Inactive)
REMARK    1  A    between atoms: C1_1  and  O1_2
REMARK    2  A    between atoms: O1_2  and  C2_3
REMARK    3  A    between atoms: C4_5  and  O6_27
REMARK    4  A    between atoms: C7_8  and  C8_9
REMARK    5  A    between atoms: C9_10  and  C10_11
REMARK    6  A    between atoms: C10_11  and  C11_13
REMARK    7  A    between atoms: C11_13  and  C12_14
REMARK    8  A    between atoms: C12_14  and  C13_16
REMARK    9  A    between atoms: C14_17  and  C15_18
REMARK   10  A    between atoms: C17_20  and  O5_25
REMARK   11  A    between atoms: C18_21  and  O4_24
REMARK   12  A    between atoms: O5_25  and  C21_26
REMARK                            x       y       z     vdW  Elec       q    Type
REMARK                         _______ _______ _______ _____ _____    ______ ____
ROOT
ATOM      1  C11 UNL     1       7.183  71.978  77.303  0.00  0.00    +0.000 C 
ENDROOT
BRANCH   1   2
ATOM      2  C10 UNL     1       7.022  71.460  78.705  0.00  0.00    +0.000 C 
ATOM      3  O2  UNL     1       6.225  72.040  79.490  0.00  0.00    +0.000 OA
BRANCH   2   5
ATOM      4  C8  UNL     1       7.144  69.145  79.547  0.00  0.00    +0.000 C 
ATOM      5  C9  UNL     1       7.763  70.259  79.137  0.00  0.00    +0.000 C 
BRANCH   4  11
ATOM      6  C2  UNL     1       7.226  66.795  80.506  0.00  0.00    +0.000 A 
ATOM      7  C3  UNL     1       7.992  65.670  80.875  0.00  0.00    +0.000 A 
ATOM      8  C4  UNL     1       9.377  65.652  80.664  0.00  0.00    +0.000 A 
ATOM      9  C5  UNL     1      10.005  66.752  80.079  0.00  0.00    +0.000 A 
ATOM     10  C6  UNL     1       9.261  67.875  79.718  0.00  0.00    +0.000 A 
ATOM     11  C7  UNL     1       7.876  67.922  79.948  0.00  0.00    +0.000 A 
BRANCH   6  13
ATOM     12  C1  UNL     1       5.009  65.648  80.740  0.00  0.00    +0.000 C 
ATOM     13  O1  UNL     1       5.829  66.809  80.653  0.00  0.00    +0.000 OA
ENDBRANCH   6  13
BRANCH   8  14
ATOM     14  O6  UNL     1      10.135  64.540  81.024  0.00  0.00    +0.000 OA
ATOM     15  H20 UNL     1       9.722  63.617  81.099  0.00  0.00    +0.000 HD
ENDBRANCH   8  14
ENDBRANCH   4  11
ENDBRANCH   2   5
ENDBRANCH   1   2
BRANCH   1  16
ATOM     16  C12 UNL     1       6.974  70.902  76.263  0.00  0.00    +0.000 C 
ATOM     17  O3  UNL     1       5.900  70.863  75.604  0.00  0.00    +0.000 OA
BRANCH  16  18
ATOM     18  C13 UNL     1       7.999  69.874  75.982  0.00  0.00    +0.000 C 
ATOM     19  C14 UNL     1       7.729  68.561  75.910  0.00  0.00    +0.000 C 
BRANCH  19  20
ATOM     20  C15 UNL     1       8.754  67.529  75.616  0.00  0.00    +0.000 A 
ATOM     21  C16 UNL     1       9.855  67.294  76.466  0.00  0.00    +0.000 A 
ATOM     22  C17 UNL     1      10.800  66.296  76.155  0.00  0.00    +0.000 A 
ATOM     23  C18 UNL     1      10.632  65.526  74.997  0.00  0.00    +0.000 A 
ATOM     24  C19 UNL     1       9.531  65.745  74.161  0.00  0.00    +0.000 A 
ATOM     25  C20 UNL     1       8.596  66.734  74.472  0.00  0.00    +0.000 A 
BRANCH  23  26
ATOM     26  O4  UNL     1      11.566  64.540  74.684  0.00  0.00    +0.000 OA
ATOM     27  H16 UNL     1      12.285  64.261  75.343  0.00  0.00    +0.000 HD
ENDBRANCH  23  26
BRANCH  22  28
ATOM     28  O5  UNL     1      11.913  66.038  76.973  0.00  0.00    +0.000 OA
ATOM     29  C21 UNL     1      12.069  64.875  77.779  0.00  0.00    +0.000 C 
ENDBRANCH  22  28
ENDBRANCH  19  20
ENDBRANCH  16  18
ENDBRANCH   1  16
TORSDOF 10
ENDMDL
