MODEL 1
REMARK VINA RESULT:      -2.4      0.000      0.000
REMARK  Name = .\curcumin.pdb
REMARK  12 active torsions:
REMARK  status: ('A' for Active; 'I' for Inactive)
REMARK    1  A    between atoms: C1_1  and  O1_2
REMARK    2  A    between atoms: O1_2  and  C2_3
REMARK    3  A    between atoms: C4_5  and  O6_27
REMARK    4  A    between atoms: C7_8  and  C8_9
REMARK    5  A    between atoms: C9_10  and  C10_11
REMARK    6  A    between atoms: C10_11  and  C11_13
REMARK    7  A    between atoms: C11_13  and  C12_14
REMARK    8  A    between atoms: C12_14  and  C13_16
REMARK    9  A    between atoms: C14_17  and  C15_18
REMARK   10  A    between atoms: C17_20  and  O5_25
REMARK   11  A    between atoms: C18_21  and  O4_24
REMARK   12  A    between atoms: O5_25  and  C21_26
REMARK                            x       y       z     vdW  Elec       q    Type
REMARK                         _______ _______ _______ _____ _____    ______ ____
ROOT
ATOM      1  C11 UNL     1      21.028  93.282  84.714  0.00  0.00    +0.000 C 
ENDROOT
BRANCH   1   2
ATOM      2  C10 UNL     1      20.546  94.463  83.919  0.00  0.00    +0.000 C 
ATOM      3  O2  UNL     1      21.376  95.143  83.258  0.00  0.00    +0.000 OA
BRANCH   2   5
ATOM      4  C8  UNL     1      18.201  93.979  83.326  0.00  0.00    +0.000 C 
ATOM      5  C9  UNL     1      19.107  94.790  83.886  0.00  0.00    +0.000 C 
BRANCH   4  11
ATOM      6  C2  UNL     1      16.085  94.833  84.437  0.00  0.00    +0.000 A 
ATOM      7  C3  UNL     1      14.699  95.080  84.360  0.00  0.00    +0.000 A 
ATOM      8  C4  UNL     1      13.992  94.813  83.181  0.00  0.00    +0.000 A 
ATOM      9  C5  UNL     1      14.664  94.302  82.069  0.00  0.00    +0.000 A 
ATOM     10  C6  UNL     1      16.033  94.043  82.135  0.00  0.00    +0.000 A 
ATOM     11  C7  UNL     1      16.751  94.279  83.318  0.00  0.00    +0.000 A 
BRANCH   6  13
ATOM     12  C1  UNL     1      16.304  95.130  86.917  0.00  0.00    +0.000 C 
ATOM     13  O1  UNL     1      16.822  95.151  85.591  0.00  0.00    +0.000 OA
ENDBRANCH   6  13
BRANCH   8  14
ATOM     14  O6  UNL     1      12.623  95.061  83.101  0.00  0.00    +0.000 OA
ATOM     15  H20 UNL     1      12.209  95.498  82.287  0.00  0.00    +0.000 HD
ENDBRANCH   8  14
ENDBRANCH   4  11
ENDBRANCH   2   5
ENDBRANCH   1   2
BRANCH   1  16
ATOM     16  C12 UNL     1      20.015  92.820  85.736  0.00  0.00    +0.000 C 
ATOM     17  O3  UNL     1      20.221  93.021  86.963  0.00  0.00    +0.000 OA
BRANCH  16  18
ATOM     18  C13 UNL     1      18.767  92.130  85.344  0.00  0.00    +0.000 C 
ATOM     19  C14 UNL     1      17.560  92.450  85.836  0.00  0.00    +0.000 C 
BRANCH  19  20
ATOM     20  C15 UNL     1      16.305  91.767  85.435  0.00  0.00    +0.000 A 
ATOM     21  C16 UNL     1      15.030  92.295  85.727  0.00  0.00    +0.000 A 
ATOM     22  C17 UNL     1      13.864  91.619  85.319  0.00  0.00    +0.000 A 
ATOM     23  C18 UNL     1      13.978  90.417  84.606  0.00  0.00    +0.000 A 
ATOM     24  C19 UNL     1      15.242  89.901  84.299  0.00  0.00    +0.000 A 
ATOM     25  C20 UNL     1      16.396  90.573  84.704  0.00  0.00    +0.000 A 
BRANCH  23  26
ATOM     26  O4  UNL     1      12.827  89.744  84.202  0.00  0.00    +0.000 OA
ATOM     27  H16 UNL     1      12.714  89.408  83.252  0.00  0.00    +0.000 HD
ENDBRANCH  23  26
BRANCH  22  28
ATOM     28  O5  UNL     1      12.577  92.109  85.598  0.00  0.00    +0.000 OA
ATOM     29  C21 UNL     1      12.308  93.274  86.370  0.00  0.00    +0.000 C 
ENDBRANCH  22  28
ENDBRANCH  19  20
ENDBRANCH  16  18
ENDBRANCH   1  16
TORSDOF 10
ENDMDL
MODEL 2
REMARK VINA RESULT:       0.2      1.802      6.634
REMARK  Name = .\curcumin.pdb
REMARK  12 active torsions:
REMARK  status: ('A' for Active; 'I' for Inactive)
REMARK    1  A    between atoms: C1_1  and  O1_2
REMARK    2  A    between atoms: O1_2  and  C2_3
REMARK    3  A    between atoms: C4_5  and  O6_27
REMARK    4  A    between atoms: C7_8  and  C8_9
REMARK    5  A    between atoms: C9_10  and  C10_11
REMARK    6  A    between atoms: C10_11  and  C11_13
REMARK    7  A    between atoms: C11_13  and  C12_14
REMARK    8  A    between atoms: C12_14  and  C13_16
REMARK    9  A    between atoms: C14_17  and  C15_18
REMARK   10  A    between atoms: C17_20  and  O5_25
REMARK   11  A    between atoms: C18_21  and  O4_24
REMARK   12  A    between atoms: O5_25  and  C21_26
REMARK                            x       y       z     vdW  Elec       q    Type
REMARK                         _______ _______ _______ _____ _____    ______ ____
ROOT
ATOM      1  C11 UNL     1      13.205  92.518  84.781  0.00  0.00    +0.000 C 
ENDROOT
BRANCH   1   2
ATOM      2  C10 UNL     1      13.370  93.298  86.056  0.00  0.00    +0.000 C 
ATOM      3  O2  UNL     1      12.357  93.542  86.765  0.00  0.00    +0.000 OA
BRANCH   2   5
ATOM      4  C8  UNL     1      15.800  92.969  86.319  0.00  0.00    +0.000 C 
ATOM      5  C9  UNL     1      14.714  93.734  86.484  0.00  0.00    +0.000 C 
BRANCH   4  11
ATOM      6  C2  UNL     1      18.310  92.623  86.477  0.00  0.00    +0.000 A 
ATOM      7  C3  UNL     1      19.569  93.105  86.891  0.00  0.00    +0.000 A 
ATOM      8  C4  UNL     1      19.687  94.362  87.498  0.00  0.00    +0.000 A 
ATOM      9  C5  UNL     1      18.550  95.148  87.692  0.00  0.00    +0.000 A 
ATOM     10  C6  UNL     1      17.297  94.680  87.297  0.00  0.00    +0.000 A 
ATOM     11  C7  UNL     1      17.158  93.411  86.712  0.00  0.00    +0.000 A 
BRANCH   6  13
ATOM     12  C1  UNL     1      17.003  90.950  85.144  0.00  0.00    +0.000 C 
ATOM     13  O1  UNL     1      18.180  91.393  85.812  0.00  0.00    +0.000 OA
ENDBRANCH   6  13
BRANCH   8  14
ATOM     14  O6  UNL     1      20.930  94.841  87.904  0.00  0.00    +0.000 OA
ATOM     15  H20 UNL     1      21.132  95.833  87.937  0.00  0.00    +0.000 HD
ENDBRANCH   8  14
ENDBRANCH   4  11
ENDBRANCH   2   5
ENDBRANCH   1   2
BRANCH   1  16
ATOM     16  C12 UNL     1      13.455  93.361  83.552  0.00  0.00    +0.000 C 
ATOM     17  O3  UNL     1      12.487  93.736  82.837  0.00  0.00    +0.000 OA
BRANCH  16  18
ATOM     18  C13 UNL     1      14.818  93.770  83.147  0.00  0.00    +0.000 C 
ATOM     19  C14 UNL     1      15.934  93.214  83.644  0.00  0.00    +0.000 C 
BRANCH  19  20
ATOM     20  C15 UNL     1      17.301  93.615  83.230  0.00  0.00    +0.000 A 
ATOM     21  C16 UNL     1      18.449  92.885  83.604  0.00  0.00    +0.000 A 
ATOM     22  C17 UNL     1      19.729  93.294  83.181  0.00  0.00    +0.000 A 
ATOM     23  C18 UNL     1      19.855  94.432  82.372  0.00  0.00    +0.000 A 
ATOM     24  C19 UNL     1      18.717  95.148  81.984  0.00  0.00    +0.000 A 
ATOM     25  C20 UNL     1      17.450  94.739  82.405  0.00  0.00    +0.000 A 
BRANCH  23  26
ATOM     26  O4  UNL     1      21.119  94.842  81.952  0.00  0.00    +0.000 OA
ATOM     27  H16 UNL     1      21.637  94.329  81.247  0.00  0.00    +0.000 HD
ENDBRANCH  23  26
BRANCH  22  28
ATOM     28  O5  UNL     1      20.895  92.597  83.538  0.00  0.00    +0.000 OA
ATOM     29  C21 UNL     1      21.677  92.873  84.695  0.00  0.00    +0.000 C 
ENDBRANCH  22  28
ENDBRANCH  19  20
ENDBRANCH  16  18
ENDBRANCH   1  16
TORSDOF 10
ENDMDL
