MODEL 1
REMARK VINA RESULT:      46.1      0.000      0.000
REMARK  Name = .\curcumin.pdb
REMARK  12 active torsions:
REMARK  status: ('A' for Active; 'I' for Inactive)
REMARK    1  A    between atoms: C1_1  and  O1_2
REMARK    2  A    between atoms: O1_2  and  C2_3
REMARK    3  A    between atoms: C4_5  and  O6_27
REMARK    4  A    between atoms: C7_8  and  C8_9
REMARK    5  A    between atoms: C9_10  and  C10_11
REMARK    6  A    between atoms: C10_11  and  C11_13
REMARK    7  A    between atoms: C11_13  and  C12_14
REMARK    8  A    between atoms: C12_14  and  C13_16
REMARK    9  A    between atoms: C14_17  and  C15_18
REMARK   10  A    between atoms: C17_20  and  O5_25
REMARK   11  A    between atoms: C18_21  and  O4_24
REMARK   12  A    between atoms: O5_25  and  C21_26
REMARK                            x       y       z     vdW  Elec       q    Type
REMARK                         _______ _______ _______ _____ _____    ______ ____
ROOT
ATOM      1  C11 UNL     1       6.514  49.990 -50.585  0.00  0.00    +0.000 C 
ENDROOT
BRANCH   1   2
ATOM      2  C10 UNL     1       5.469  48.985 -50.189  0.00  0.00    +0.000 C 
ATOM      3  O2  UNL     1       5.130  48.090 -51.010  0.00  0.00    +0.000 OA
BRANCH   2   5
ATOM      4  C8  UNL     1       3.559  48.948 -48.628  0.00  0.00    +0.000 C 
ATOM      5  C9  UNL     1       4.880  49.029 -48.836  0.00  0.00    +0.000 C 
BRANCH   4  11
ATOM      6  C2  UNL     1       3.668  49.396 -46.132  0.00  0.00    +0.000 A 
ATOM      7  C3  UNL     1       3.034  49.361 -44.872  0.00  0.00    +0.000 A 
ATOM      8  C4  UNL     1       1.709  48.925 -44.754  0.00  0.00    +0.000 A 
ATOM      9  C5  UNL     1       1.005  48.525 -45.891  0.00  0.00    +0.000 A 
ATOM     10  C6  UNL     1       1.623  48.546 -47.142  0.00  0.00    +0.000 A 
ATOM     11  C7  UNL     1       2.960  48.954 -47.274  0.00  0.00    +0.000 A 
BRANCH   6  13
ATOM     12  C1  UNL     1       5.744  50.481 -45.236  0.00  0.00    +0.000 C 
ATOM     13  O1  UNL     1       4.976  49.888 -46.279  0.00  0.00    +0.000 OA
ENDBRANCH   6  13
BRANCH   8  14
ATOM     14  O6  UNL     1       1.080  48.893 -43.511  0.00  0.00    +0.000 OA
ATOM     15  H20 UNL     1       1.283  49.581 -42.796  0.00  0.00    +0.000 HD
ENDBRANCH   8  14
ENDBRANCH   4  11
ENDBRANCH   2   5
ENDBRANCH   1   2
BRANCH   1  16
ATOM     16  C12 UNL     1       6.089  51.411 -50.293  0.00  0.00    +0.000 C 
ATOM     17  O3  UNL     1       6.514  52.356 -51.010  0.00  0.00    +0.000 OA
BRANCH  16  18
ATOM     18  C13 UNL     1       5.177  51.741 -49.177  0.00  0.00    +0.000 C 
ATOM     19  C14 UNL     1       3.858  51.934 -49.333  0.00  0.00    +0.000 C 
BRANCH  19  20
ATOM     20  C15 UNL     1       2.939  52.254 -48.213  0.00  0.00    +0.000 A 
ATOM     21  C16 UNL     1       3.286  52.034 -46.864  0.00  0.00    +0.000 A 
ATOM     22  C17 UNL     1       2.387  52.362 -45.829  0.00  0.00    +0.000 A 
ATOM     23  C18 UNL     1       1.143  52.922 -46.151  0.00  0.00    +0.000 A 
ATOM     24  C19 UNL     1       0.803  53.158 -47.487  0.00  0.00    +0.000 A 
ATOM     25  C20 UNL     1       1.696  52.833 -48.510  0.00  0.00    +0.000 A 
BRANCH  23  26
ATOM     26  O4  UNL     1       0.250  53.246 -45.131  0.00  0.00    +0.000 OA
ATOM     27  H16 UNL     1       0.069  52.610 -44.361  0.00  0.00    +0.000 HD
ENDBRANCH  23  26
BRANCH  22  28
ATOM     28  O5  UNL     1       2.694  52.151 -44.475  0.00  0.00    +0.000 OA
ATOM     29  C21 UNL     1       3.987  51.816 -43.984  0.00  0.00    +0.000 C 
ENDBRANCH  22  28
ENDBRANCH  19  20
ENDBRANCH  16  18
ENDBRANCH   1  16
TORSDOF 10
ENDMDL
