MODEL 1
REMARK VINA RESULT:      -2.3      0.000      0.000
REMARK  Name = .\curcumin.pdb
REMARK  12 active torsions:
REMARK  status: ('A' for Active; 'I' for Inactive)
REMARK    1  A    between atoms: C1_1  and  O1_2
REMARK    2  A    between atoms: O1_2  and  C2_3
REMARK    3  A    between atoms: C4_5  and  O6_27
REMARK    4  A    between atoms: C7_8  and  C8_9
REMARK    5  A    between atoms: C9_10  and  C10_11
REMARK    6  A    between atoms: C10_11  and  C11_13
REMARK    7  A    between atoms: C11_13  and  C12_14
REMARK    8  A    between atoms: C12_14  and  C13_16
REMARK    9  A    between atoms: C14_17  and  C15_18
REMARK   10  A    between atoms: C17_20  and  O5_25
REMARK   11  A    between atoms: C18_21  and  O4_24
REMARK   12  A    between atoms: O5_25  and  C21_26
REMARK                            x       y       z     vdW  Elec       q    Type
REMARK                         _______ _______ _______ _____ _____    ______ ____
ROOT
ATOM      1  C11 UNL     1     -11.556  41.275 -33.919  0.00  0.00    +0.000 C 
ENDROOT
BRANCH   1   2
ATOM      2  C10 UNL     1     -11.536  42.636 -34.557  0.00  0.00    +0.000 C 
ATOM      3  O2  UNL     1     -12.595  43.097 -35.062  0.00  0.00    +0.000 OA
BRANCH   2   5
ATOM      4  C8  UNL     1     -10.060  44.385 -33.637  0.00  0.00    +0.000 C 
ATOM      5  C9  UNL     1     -10.294  43.434 -34.550  0.00  0.00    +0.000 C 
BRANCH   4  11
ATOM      6  C2  UNL     1      -8.186  45.553 -32.385  0.00  0.00    +0.000 A 
ATOM      7  C3  UNL     1      -6.996  46.308 -32.428  0.00  0.00    +0.000 A 
ATOM      8  C4  UNL     1      -6.411  46.647 -33.655  0.00  0.00    +0.000 A 
ATOM      9  C5  UNL     1      -7.006  46.230 -34.846  0.00  0.00    +0.000 A 
ATOM     10  C6  UNL     1      -8.189  45.491 -34.819  0.00  0.00    +0.000 A 
ATOM     11  C7  UNL     1      -8.803  45.167 -33.599  0.00  0.00    +0.000 A 
BRANCH   6  13
ATOM     12  C1  UNL     1      -8.234  45.479 -29.880  0.00  0.00    +0.000 C 
ATOM     13  O1  UNL     1      -8.754  45.152 -31.164  0.00  0.00    +0.000 OA
ENDBRANCH   6  13
BRANCH   8  14
ATOM     14  O6  UNL     1      -5.233  47.390 -33.699  0.00  0.00    +0.000 OA
ATOM     15  H20 UNL     1      -5.091  48.196 -33.101  0.00  0.00    +0.000 HD
ENDBRANCH   8  14
ENDBRANCH   4  11
ENDBRANCH   2   5
ENDBRANCH   1   2
BRANCH   1  16
ATOM     16  C12 UNL     1     -10.892  41.263 -32.562  0.00  0.00    +0.000 C 
ATOM     17  O3  UNL     1     -11.595  41.259 -31.516  0.00  0.00    +0.000 OA
BRANCH  16  18
ATOM     18  C13 UNL     1      -9.421  41.257 -32.410  0.00  0.00    +0.000 C 
ATOM     19  C14 UNL     1      -8.772  41.955 -31.465  0.00  0.00    +0.000 C 
BRANCH  19  20
ATOM     20  C15 UNL     1      -7.298  41.941 -31.303  0.00  0.00    +0.000 A 
ATOM     21  C16 UNL     1      -6.418  42.256 -32.359  0.00  0.00    +0.000 A 
ATOM     22  C17 UNL     1      -5.023  42.241 -32.160  0.00  0.00    +0.000 A 
ATOM     23  C18 UNL     1      -4.512  41.919 -30.895  0.00  0.00    +0.000 A 
ATOM     24  C19 UNL     1      -5.383  41.624 -29.840  0.00  0.00    +0.000 A 
ATOM     25  C20 UNL     1      -6.764  41.640 -30.041  0.00  0.00    +0.000 A 
BRANCH  23  26
ATOM     26  O4  UNL     1      -3.133  41.901 -30.693  0.00  0.00    +0.000 OA
ATOM     27  H16 UNL     1      -2.730  41.995 -29.767  0.00  0.00    +0.000 HD
ENDBRANCH  23  26
BRANCH  22  28
ATOM     28  O5  UNL     1      -4.116  42.543 -33.189  0.00  0.00    +0.000 OA
ATOM     29  C21 UNL     1      -3.701  43.859 -33.538  0.00  0.00    +0.000 C 
ENDBRANCH  22  28
ENDBRANCH  19  20
ENDBRANCH  16  18
ENDBRANCH   1  16
TORSDOF 10
ENDMDL
MODEL 2
REMARK VINA RESULT:      -1.1      2.296      6.572
REMARK  Name = .\curcumin.pdb
REMARK  12 active torsions:
REMARK  status: ('A' for Active; 'I' for Inactive)
REMARK    1  A    between atoms: C1_1  and  O1_2
REMARK    2  A    between atoms: O1_2  and  C2_3
REMARK    3  A    between atoms: C4_5  and  O6_27
REMARK    4  A    between atoms: C7_8  and  C8_9
REMARK    5  A    between atoms: C9_10  and  C10_11
REMARK    6  A    between atoms: C10_11  and  C11_13
REMARK    7  A    between atoms: C11_13  and  C12_14
REMARK    8  A    between atoms: C12_14  and  C13_16
REMARK    9  A    between atoms: C14_17  and  C15_18
REMARK   10  A    between atoms: C17_20  and  O5_25
REMARK   11  A    between atoms: C18_21  and  O4_24
REMARK   12  A    between atoms: O5_25  and  C21_26
REMARK                            x       y       z     vdW  Elec       q    Type
REMARK                         _______ _______ _______ _____ _____    ______ ____
ROOT
ATOM      1  C11 UNL     1      -6.614  41.434 -31.456  0.00  0.00    +0.000 C 
ENDROOT
BRANCH   1   2
ATOM      2  C10 UNL     1      -8.089  41.432 -31.164  0.00  0.00    +0.000 C 
ATOM      3  O2  UNL     1      -8.481  41.484 -29.967  0.00  0.00    +0.000 OA
BRANCH   2   5
ATOM      4  C8  UNL     1      -8.681  41.480 -33.558  0.00  0.00    +0.000 C 
ATOM      5  C9  UNL     1      -9.060  41.412 -32.275  0.00  0.00    +0.000 C 
BRANCH   4  11
ATOM      6  C2  UNL     1     -11.045  41.439 -34.484  0.00  0.00    +0.000 A 
ATOM      7  C3  UNL     1     -11.899  41.370 -35.604  0.00  0.00    +0.000 A 
ATOM      8  C4  UNL     1     -11.372  41.319 -36.900  0.00  0.00    +0.000 A 
ATOM      9  C5  UNL     1      -9.989  41.342 -37.088  0.00  0.00    +0.000 A 
ATOM     10  C6  UNL     1      -9.132  41.400 -35.989  0.00  0.00    +0.000 A 
ATOM     11  C7  UNL     1      -9.644  41.423 -34.682  0.00  0.00    +0.000 A 
BRANCH   6  13
ATOM     12  C1  UNL     1     -12.594  42.444 -32.788  0.00  0.00    +0.000 C 
ATOM     13  O1  UNL     1     -11.555  41.552 -33.180  0.00  0.00    +0.000 OA
ENDBRANCH   6  13
BRANCH   8  14
ATOM     14  O6  UNL     1     -12.214  41.255 -38.007  0.00  0.00    +0.000 OA
ATOM     15  H20 UNL     1     -12.002  41.749 -38.866  0.00  0.00    +0.000 HD
ENDBRANCH   8  14
ENDBRANCH   4  11
ENDBRANCH   2   5
ENDBRANCH   1   2
BRANCH   1  16
ATOM     16  C12 UNL     1      -6.116  42.789 -31.904  0.00  0.00    +0.000 C 
ATOM     17  O3  UNL     1      -4.881  43.039 -31.898  0.00  0.00    +0.000 OA
BRANCH  16  18
ATOM     18  C13 UNL     1      -7.039  43.852 -32.357  0.00  0.00    +0.000 C 
ATOM     19  C14 UNL     1      -7.353  44.058 -33.645  0.00  0.00    +0.000 C 
BRANCH  19  20
ATOM     20  C15 UNL     1      -8.288  45.116 -34.101  0.00  0.00    +0.000 A 
ATOM     21  C16 UNL     1      -9.647  45.138 -33.725  0.00  0.00    +0.000 A 
ATOM     22  C17 UNL     1     -10.498  46.168 -34.172  0.00  0.00    +0.000 A 
ATOM     23  C18 UNL     1      -9.981  47.183 -34.987  0.00  0.00    +0.000 A 
ATOM     24  C19 UNL     1      -8.629  47.175 -35.347  0.00  0.00    +0.000 A 
ATOM     25  C20 UNL     1      -7.787  46.153 -34.902  0.00  0.00    +0.000 A 
BRANCH  23  26
ATOM     26  O4  UNL     1     -10.820  48.203 -35.434  0.00  0.00    +0.000 OA
ATOM     27  H16 UNL     1     -10.685  48.645 -36.337  0.00  0.00    +0.000 HD
ENDBRANCH  23  26
BRANCH  22  28
ATOM     28  O5  UNL     1     -11.858  46.219 -33.824  0.00  0.00    +0.000 OA
ATOM     29  C21 UNL     1     -12.361  46.046 -32.503  0.00  0.00    +0.000 C 
ENDBRANCH  22  28
ENDBRANCH  19  20
ENDBRANCH  16  18
ENDBRANCH   1  16
TORSDOF 10
ENDMDL
