MODEL 1
REMARK VINA RESULT:      -5.4      0.000      0.000
REMARK  Name = .\curcumin.pdb
REMARK  12 active torsions:
REMARK  status: ('A' for Active; 'I' for Inactive)
REMARK    1  A    between atoms: C1_1  and  O1_2
REMARK    2  A    between atoms: O1_2  and  C2_3
REMARK    3  A    between atoms: C4_5  and  O6_27
REMARK    4  A    between atoms: C7_8  and  C8_9
REMARK    5  A    between atoms: C9_10  and  C10_11
REMARK    6  A    between atoms: C10_11  and  C11_13
REMARK    7  A    between atoms: C11_13  and  C12_14
REMARK    8  A    between atoms: C12_14  and  C13_16
REMARK    9  A    between atoms: C14_17  and  C15_18
REMARK   10  A    between atoms: C17_20  and  O5_25
REMARK   11  A    between atoms: C18_21  and  O4_24
REMARK   12  A    between atoms: O5_25  and  C21_26
REMARK                            x       y       z     vdW  Elec       q    Type
REMARK                         _______ _______ _______ _____ _____    ______ ____
ROOT
ATOM      1  C11 UNL     1       5.691  61.129  44.215  0.00  0.00    +0.000 C 
ENDROOT
BRANCH   1   2
ATOM      2  C10 UNL     1       6.066  60.496  42.904  0.00  0.00    +0.000 C 
ATOM      3  O2  UNL     1       6.768  59.450  42.903  0.00  0.00    +0.000 OA
BRANCH   2   5
ATOM      4  C8  UNL     1       4.653  62.045  41.606  0.00  0.00    +0.000 C 
ATOM      5  C9  UNL     1       5.580  61.080  41.639  0.00  0.00    +0.000 C 
BRANCH   4  11
ATOM      6  C2  UNL     1       2.825  62.986  40.117  0.00  0.00    +0.000 A 
ATOM      7  C3  UNL     1       2.451  63.562  38.885  0.00  0.00    +0.000 A 
ATOM      8  C4  UNL     1       3.415  63.842  37.908  0.00  0.00    +0.000 A 
ATOM      9  C5  UNL     1       4.759  63.555  38.156  0.00  0.00    +0.000 A 
ATOM     10  C6  UNL     1       5.141  62.977  39.366  0.00  0.00    +0.000 A 
ATOM     11  C7  UNL     1       4.184  62.663  40.345  0.00  0.00    +0.000 A 
BRANCH   6  13
ATOM     12  C1  UNL     1       0.489  62.550  40.915  0.00  0.00    +0.000 C 
ATOM     13  O1  UNL     1       1.881  62.753  41.132  0.00  0.00    +0.000 OA
ENDBRANCH   6  13
BRANCH   8  14
ATOM     14  O6  UNL     1       3.049  64.415  36.692  0.00  0.00    +0.000 OA
ATOM     15  H20 UNL     1       3.726  64.577  35.956  0.00  0.00    +0.000 HD
ENDBRANCH   8  14
ENDBRANCH   4  11
ENDBRANCH   2   5
ENDBRANCH   1   2
BRANCH   1  16
ATOM     16  C12 UNL     1       6.631  62.244  44.609  0.00  0.00    +0.000 C 
ATOM     17  O3  UNL     1       7.869  62.023  44.700  0.00  0.00    +0.000 OA
BRANCH  16  18
ATOM     18  C13 UNL     1       6.147  63.612  44.897  0.00  0.00    +0.000 C 
ATOM     19  C14 UNL     1       5.893  64.521  43.943  0.00  0.00    +0.000 C 
BRANCH  19  20
ATOM     20  C15 UNL     1       5.396  65.890  44.228  0.00  0.00    +0.000 A 
ATOM     21  C16 UNL     1       6.260  66.994  44.372  0.00  0.00    +0.000 A 
ATOM     22  C17 UNL     1       5.745  68.280  44.632  0.00  0.00    +0.000 A 
ATOM     23  C18 UNL     1       4.359  68.457  44.736  0.00  0.00    +0.000 A 
ATOM     24  C19 UNL     1       3.497  67.367  44.576  0.00  0.00    +0.000 A 
ATOM     25  C20 UNL     1       4.011  66.094  44.317  0.00  0.00    +0.000 A 
BRANCH  23  26
ATOM     26  O4  UNL     1       3.844  69.726  44.995  0.00  0.00    +0.000 OA
ATOM     27  H16 UNL     1       3.790  70.436  44.272  0.00  0.00    +0.000 HD
ENDBRANCH  23  26
BRANCH  22  28
ATOM     28  O5  UNL     1       6.575  69.402  44.788  0.00  0.00    +0.000 OA
ATOM     29  C21 UNL     1       7.227  70.079  43.719  0.00  0.00    +0.000 C 
ENDBRANCH  22  28
ENDBRANCH  19  20
ENDBRANCH  16  18
ENDBRANCH   1  16
TORSDOF 10
ENDMDL
MODEL 2
REMARK VINA RESULT:      -5.1      1.600      6.742
REMARK  Name = .\curcumin.pdb
REMARK  12 active torsions:
REMARK  status: ('A' for Active; 'I' for Inactive)
REMARK    1  A    between atoms: C1_1  and  O1_2
REMARK    2  A    between atoms: O1_2  and  C2_3
REMARK    3  A    between atoms: C4_5  and  O6_27
REMARK    4  A    between atoms: C7_8  and  C8_9
REMARK    5  A    between atoms: C9_10  and  C10_11
REMARK    6  A    between atoms: C10_11  and  C11_13
REMARK    7  A    between atoms: C11_13  and  C12_14
REMARK    8  A    between atoms: C12_14  and  C13_16
REMARK    9  A    between atoms: C14_17  and  C15_18
REMARK   10  A    between atoms: C17_20  and  O5_25
REMARK   11  A    between atoms: C18_21  and  O4_24
REMARK   12  A    between atoms: O5_25  and  C21_26
REMARK                            x       y       z     vdW  Elec       q    Type
REMARK                         _______ _______ _______ _____ _____    ______ ____
ROOT
ATOM      1  C11 UNL     1       5.624  62.122  44.148  0.00  0.00    +0.000 C 
ENDROOT
BRANCH   1   2
ATOM      2  C10 UNL     1       6.627  63.241  44.128  0.00  0.00    +0.000 C 
ATOM      3  O2  UNL     1       7.807  63.006  43.752  0.00  0.00    +0.000 OA
BRANCH   2   5
ATOM      4  C8  UNL     1       5.665  65.457  43.632  0.00  0.00    +0.000 C 
ATOM      5  C9  UNL     1       6.215  64.607  44.508  0.00  0.00    +0.000 C 
BRANCH   4  11
ATOM      6  C2  UNL     1       5.931  67.982  43.647  0.00  0.00    +0.000 A 
ATOM      7  C3  UNL     1       5.446  69.242  44.054  0.00  0.00    +0.000 A 
ATOM      8  C4  UNL     1       4.254  69.346  44.781  0.00  0.00    +0.000 A 
ATOM      9  C5  UNL     1       3.534  68.195  45.103  0.00  0.00    +0.000 A 
ATOM     10  C6  UNL     1       4.007  66.941  44.715  0.00  0.00    +0.000 A 
ATOM     11  C7  UNL     1       5.215  66.816  44.010  0.00  0.00    +0.000 A 
BRANCH   6  13
ATOM     12  C1  UNL     1       7.144  68.044  41.454  0.00  0.00    +0.000 C 
ATOM     13  O1  UNL     1       7.092  67.862  42.865  0.00  0.00    +0.000 OA
ENDBRANCH   6  13
BRANCH   8  14
ATOM     14  O6  UNL     1       3.772  70.591  45.180  0.00  0.00    +0.000 OA
ATOM     15  H20 UNL     1       3.199  71.160  44.568  0.00  0.00    +0.000 HD
ENDBRANCH   8  14
ENDBRANCH   4  11
ENDBRANCH   2   5
ENDBRANCH   1   2
BRANCH   1  16
ATOM     16  C12 UNL     1       5.724  61.235  42.928  0.00  0.00    +0.000 C 
ATOM     17  O3  UNL     1       6.120  60.044  43.045  0.00  0.00    +0.000 OA
BRANCH  16  18
ATOM     18  C13 UNL     1       5.369  61.720  41.577  0.00  0.00    +0.000 C 
ATOM     19  C14 UNL     1       4.389  62.607  41.344  0.00  0.00    +0.000 C 
BRANCH  19  20
ATOM     20  C15 UNL     1       4.039  63.104  39.991  0.00  0.00    +0.000 A 
ATOM     21  C16 UNL     1       3.709  64.452  39.741  0.00  0.00    +0.000 A 
ATOM     22  C17 UNL     1       3.393  64.885  38.438  0.00  0.00    +0.000 A 
ATOM     23  C18 UNL     1       3.420  63.964  37.382  0.00  0.00    +0.000 A 
ATOM     24  C19 UNL     1       3.765  62.629  37.623  0.00  0.00    +0.000 A 
ATOM     25  C20 UNL     1       4.078  62.204  38.915  0.00  0.00    +0.000 A 
BRANCH  23  26
ATOM     26  O4  UNL     1       3.106  64.386  36.092  0.00  0.00    +0.000 OA
ATOM     27  H16 UNL     1       3.723  64.998  35.568  0.00  0.00    +0.000 HD
ENDBRANCH  23  26
BRANCH  22  28
ATOM     28  O5  UNL     1       3.053  66.217  38.153  0.00  0.00    +0.000 OA
ATOM     29  C21 UNL     1       3.953  67.184  37.621  0.00  0.00    +0.000 C 
ENDBRANCH  22  28
ENDBRANCH  19  20
ENDBRANCH  16  18
ENDBRANCH   1  16
TORSDOF 10
ENDMDL
MODEL 3
REMARK VINA RESULT:      -5.0      2.426      6.236
REMARK  Name = .\curcumin.pdb
REMARK  12 active torsions:
REMARK  status: ('A' for Active; 'I' for Inactive)
REMARK    1  A    between atoms: C1_1  and  O1_2
REMARK    2  A    between atoms: O1_2  and  C2_3
REMARK    3  A    between atoms: C4_5  and  O6_27
REMARK    4  A    between atoms: C7_8  and  C8_9
REMARK    5  A    between atoms: C9_10  and  C10_11
REMARK    6  A    between atoms: C10_11  and  C11_13
REMARK    7  A    between atoms: C11_13  and  C12_14
REMARK    8  A    between atoms: C12_14  and  C13_16
REMARK    9  A    between atoms: C14_17  and  C15_18
REMARK   10  A    between atoms: C17_20  and  O5_25
REMARK   11  A    between atoms: C18_21  and  O4_24
REMARK   12  A    between atoms: O5_25  and  C21_26
REMARK                            x       y       z     vdW  Elec       q    Type
REMARK                         _______ _______ _______ _____ _____    ______ ____
ROOT
ATOM      1  C11 UNL     1       6.164  66.908  44.068  0.00  0.00    +0.000 C 
ENDROOT
BRANCH   1   2
ATOM      2  C10 UNL     1       6.621  67.253  42.679  0.00  0.00    +0.000 C 
ATOM      3  O2  UNL     1       6.904  68.450  42.401  0.00  0.00    +0.000 OA
BRANCH   2   5
ATOM      4  C8  UNL     1       6.145  66.232  40.485  0.00  0.00    +0.000 C 
ATOM      5  C9  UNL     1       6.773  66.190  41.667  0.00  0.00    +0.000 C 
BRANCH   4  11
ATOM      6  C2  UNL     1       5.711  65.277  38.173  0.00  0.00    +0.000 A 
ATOM      7  C3  UNL     1       5.912  64.239  37.241  0.00  0.00    +0.000 A 
ATOM      8  C4  UNL     1       6.728  63.146  37.558  0.00  0.00    +0.000 A 
ATOM      9  C5  UNL     1       7.354  63.084  38.804  0.00  0.00    +0.000 A 
ATOM     10  C6  UNL     1       7.156  64.100  39.739  0.00  0.00    +0.000 A 
ATOM     11  C7  UNL     1       6.318  65.189  39.448  0.00  0.00    +0.000 A 
BRANCH   6  13
ATOM     12  C1  UNL     1       3.655  66.376  37.250  0.00  0.00    +0.000 C 
ATOM     13  O1  UNL     1       4.945  66.411  37.851  0.00  0.00    +0.000 OA
ENDBRANCH   6  13
BRANCH   8  14
ATOM     14  O6  UNL     1       6.930  62.120  36.636  0.00  0.00    +0.000 OA
ATOM     15  H20 UNL     1       6.168  61.533  36.319  0.00  0.00    +0.000 HD
ENDBRANCH   8  14
ENDBRANCH   4  11
ENDBRANCH   2   5
ENDBRANCH   1   2
BRANCH   1  16
ATOM     16  C12 UNL     1       4.779  66.304  44.087  0.00  0.00    +0.000 C 
ATOM     17  O3  UNL     1       3.937  66.684  44.945  0.00  0.00    +0.000 OA
BRANCH  16  18
ATOM     18  C13 UNL     1       4.365  65.264  43.120  0.00  0.00    +0.000 C 
ATOM     19  C14 UNL     1       4.877  64.024  43.105  0.00  0.00    +0.000 C 
BRANCH  19  20
ATOM     20  C15 UNL     1       4.455  62.975  42.144  0.00  0.00    +0.000 A 
ATOM     21  C16 UNL     1       3.270  63.076  41.387  0.00  0.00    +0.000 A 
ATOM     22  C17 UNL     1       2.911  62.062  40.477  0.00  0.00    +0.000 A 
ATOM     23  C18 UNL     1       3.750  60.951  40.319  0.00  0.00    +0.000 A 
ATOM     24  C19 UNL     1       4.936  60.857  41.055  0.00  0.00    +0.000 A 
ATOM     25  C20 UNL     1       5.289  61.863  41.955  0.00  0.00    +0.000 A 
BRANCH  23  26
ATOM     26  O4  UNL     1       3.398  59.944  39.421  0.00  0.00    +0.000 OA
ATOM     27  H16 UNL     1       3.993  59.136  39.270  0.00  0.00    +0.000 HD
ENDBRANCH  23  26
BRANCH  22  28
ATOM     28  O5  UNL     1       1.735  62.124  39.711  0.00  0.00    +0.000 OA
ATOM     29  C21 UNL     1       0.492  62.636  40.181  0.00  0.00    +0.000 C 
ENDBRANCH  22  28
ENDBRANCH  19  20
ENDBRANCH  16  18
ENDBRANCH   1  16
TORSDOF 10
ENDMDL
MODEL 4
REMARK VINA RESULT:      -4.7      2.845      4.442
REMARK  Name = .\curcumin.pdb
REMARK  12 active torsions:
REMARK  status: ('A' for Active; 'I' for Inactive)
REMARK    1  A    between atoms: C1_1  and  O1_2
REMARK    2  A    between atoms: O1_2  and  C2_3
REMARK    3  A    between atoms: C4_5  and  O6_27
REMARK    4  A    between atoms: C7_8  and  C8_9
REMARK    5  A    between atoms: C9_10  and  C10_11
REMARK    6  A    between atoms: C10_11  and  C11_13
REMARK    7  A    between atoms: C11_13  and  C12_14
REMARK    8  A    between atoms: C12_14  and  C13_16
REMARK    9  A    between atoms: C14_17  and  C15_18
REMARK   10  A    between atoms: C17_20  and  O5_25
REMARK   11  A    between atoms: C18_21  and  O4_24
REMARK   12  A    between atoms: O5_25  and  C21_26
REMARK                            x       y       z     vdW  Elec       q    Type
REMARK                         _______ _______ _______ _____ _____    ______ ____
ROOT
ATOM      1  C11 UNL     1       3.290  62.298  40.314  0.00  0.00    +0.000 C 
ENDROOT
BRANCH   1   2
ATOM      2  C10 UNL     1       3.838  62.541  38.935  0.00  0.00    +0.000 C 
ATOM      3  O2  UNL     1       3.514  61.766  37.996  0.00  0.00    +0.000 OA
BRANCH   2   5
ATOM      4  C8  UNL     1       4.251  64.959  38.677  0.00  0.00    +0.000 C 
ATOM      5  C9  UNL     1       4.714  63.703  38.685  0.00  0.00    +0.000 C 
BRANCH   4  11
ATOM      6  C2  UNL     1       4.905  67.066  37.421  0.00  0.00    +0.000 A 
ATOM      7  C3  UNL     1       5.789  68.155  37.272  0.00  0.00    +0.000 A 
ATOM      8  C4  UNL     1       6.855  68.333  38.162  0.00  0.00    +0.000 A 
ATOM      9  C5  UNL     1       7.044  67.431  39.210  0.00  0.00    +0.000 A 
ATOM     10  C6  UNL     1       6.183  66.344  39.363  0.00  0.00    +0.000 A 
ATOM     11  C7  UNL     1       5.126  66.134  38.463  0.00  0.00    +0.000 A 
BRANCH   6  13
ATOM     12  C1  UNL     1       2.968  67.965  36.107  0.00  0.00    +0.000 C 
ATOM     13  O1  UNL     1       3.795  66.904  36.575  0.00  0.00    +0.000 OA
ENDBRANCH   6  13
BRANCH   8  14
ATOM     14  O6  UNL     1       7.727  69.411  38.019  0.00  0.00    +0.000 OA
ATOM     15  H20 UNL     1       8.074  69.696  37.111  0.00  0.00    +0.000 HD
ENDBRANCH   8  14
ENDBRANCH   4  11
ENDBRANCH   2   5
ENDBRANCH   1   2
BRANCH   1  16
ATOM     16  C12 UNL     1       4.380  62.118  41.345  0.00  0.00    +0.000 C 
ATOM     17  O3  UNL     1       4.849  60.971  41.573  0.00  0.00    +0.000 OA
BRANCH  16  18
ATOM     18  C13 UNL     1       4.927  63.258  42.113  0.00  0.00    +0.000 C 
ATOM     19  C14 UNL     1       4.227  64.371  42.382  0.00  0.00    +0.000 C 
BRANCH  19  20
ATOM     20  C15 UNL     1       4.770  65.510  43.162  0.00  0.00    +0.000 A 
ATOM     21  C16 UNL     1       3.973  66.276  44.037  0.00  0.00    +0.000 A 
ATOM     22  C17 UNL     1       4.531  67.344  44.767  0.00  0.00    +0.000 A 
ATOM     23  C18 UNL     1       5.894  67.635  44.627  0.00  0.00    +0.000 A 
ATOM     24  C19 UNL     1       6.693  66.866  43.773  0.00  0.00    +0.000 A 
ATOM     25  C20 UNL     1       6.136  65.808  43.052  0.00  0.00    +0.000 A 
BRANCH  23  26
ATOM     26  O4  UNL     1       6.451  68.692  45.346  0.00  0.00    +0.000 OA
ATOM     27  H16 UNL     1       7.158  69.296  44.940  0.00  0.00    +0.000 HD
ENDBRANCH  23  26
BRANCH  22  28
ATOM     28  O5  UNL     1       3.767  68.133  45.643  0.00  0.00    +0.000 OA
ATOM     29  C21 UNL     1       3.261  69.427  45.330  0.00  0.00    +0.000 C 
ENDBRANCH  22  28
ENDBRANCH  19  20
ENDBRANCH  16  18
ENDBRANCH   1  16
TORSDOF 10
ENDMDL
MODEL 5
REMARK VINA RESULT:      -4.7      3.303      6.724
REMARK  Name = .\curcumin.pdb
REMARK  12 active torsions:
REMARK  status: ('A' for Active; 'I' for Inactive)
REMARK    1  A    between atoms: C1_1  and  O1_2
REMARK    2  A    between atoms: O1_2  and  C2_3
REMARK    3  A    between atoms: C4_5  and  O6_27
REMARK    4  A    between atoms: C7_8  and  C8_9
REMARK    5  A    between atoms: C9_10  and  C10_11
REMARK    6  A    between atoms: C10_11  and  C11_13
REMARK    7  A    between atoms: C11_13  and  C12_14
REMARK    8  A    between atoms: C12_14  and  C13_16
REMARK    9  A    between atoms: C14_17  and  C15_18
REMARK   10  A    between atoms: C17_20  and  O5_25
REMARK   11  A    between atoms: C18_21  and  O4_24
REMARK   12  A    between atoms: O5_25  and  C21_26
REMARK                            x       y       z     vdW  Elec       q    Type
REMARK                         _______ _______ _______ _____ _____    ______ ____
ROOT
ATOM      1  C11 UNL     1       1.726  63.051  39.348  0.00  0.00    +0.000 C 
ENDROOT
BRANCH   1   2
ATOM      2  C10 UNL     1       1.776  62.948  40.847  0.00  0.00    +0.000 C 
ATOM      3  O2  UNL     1       0.764  62.531  41.471  0.00  0.00    +0.000 OA
BRANCH   2   5
ATOM      4  C8  UNL     1       3.297  64.551  41.944  0.00  0.00    +0.000 C 
ATOM      5  C9  UNL     1       3.016  63.296  41.569  0.00  0.00    +0.000 C 
BRANCH   4  11
ATOM      6  C2  UNL     1       5.791  64.373  42.383  0.00  0.00    +0.000 A 
ATOM      7  C3  UNL     1       6.908  64.750  43.157  0.00  0.00    +0.000 A 
ATOM      8  C4  UNL     1       6.770  65.664  44.209  0.00  0.00    +0.000 A 
ATOM      9  C5  UNL     1       5.519  66.214  44.492  0.00  0.00    +0.000 A 
ATOM     10  C6  UNL     1       4.404  65.843  43.740  0.00  0.00    +0.000 A 
ATOM     11  C7  UNL     1       4.519  64.906  42.701  0.00  0.00    +0.000 A 
BRANCH   6  13
ATOM     12  C1  UNL     1       6.717  63.762  40.135  0.00  0.00    +0.000 C 
ATOM     13  O1  UNL     1       5.919  63.504  41.286  0.00  0.00    +0.000 OA
ENDBRANCH   6  13
BRANCH   8  14
ATOM     14  O6  UNL     1       7.873  66.040  44.972  0.00  0.00    +0.000 OA
ATOM     15  H20 UNL     1       7.925  65.842  45.964  0.00  0.00    +0.000 HD
ENDBRANCH   8  14
ENDBRANCH   4  11
ENDBRANCH   2   5
ENDBRANCH   1   2
BRANCH   1  16
ATOM     16  C12 UNL     1       3.097  62.956  38.718  0.00  0.00    +0.000 C 
ATOM     17  O3  UNL     1       3.678  61.840  38.637  0.00  0.00    +0.000 OA
BRANCH  16  18
ATOM     18  C13 UNL     1       3.795  64.143  38.180  0.00  0.00    +0.000 C 
ATOM     19  C14 UNL     1       3.242  65.365  38.128  0.00  0.00    +0.000 C 
BRANCH  19  20
ATOM     20  C15 UNL     1       3.945  66.560  37.601  0.00  0.00    +0.000 A 
ATOM     21  C16 UNL     1       3.437  67.867  37.756  0.00  0.00    +0.000 A 
ATOM     22  C17 UNL     1       4.142  68.976  37.249  0.00  0.00    +0.000 A 
ATOM     23  C18 UNL     1       5.366  68.774  36.597  0.00  0.00    +0.000 A 
ATOM     24  C19 UNL     1       5.882  67.481  36.458  0.00  0.00    +0.000 A 
ATOM     25  C20 UNL     1       5.181  66.384  36.962  0.00  0.00    +0.000 A 
BRANCH  23  26
ATOM     26  O4  UNL     1       6.067  69.868  36.092  0.00  0.00    +0.000 OA
ATOM     27  H16 UNL     1       7.069  69.833  35.941  0.00  0.00    +0.000 HD
ENDBRANCH  23  26
BRANCH  22  28
ATOM     28  O5  UNL     1       3.664  70.290  37.377  0.00  0.00    +0.000 OA
ATOM     29  C21 UNL     1       4.052  71.193  38.407  0.00  0.00    +0.000 C 
ENDBRANCH  22  28
ENDBRANCH  19  20
ENDBRANCH  16  18
ENDBRANCH   1  16
TORSDOF 10
ENDMDL
MODEL 6
REMARK VINA RESULT:      -4.7      1.910      6.405
REMARK  Name = .\curcumin.pdb
REMARK  12 active torsions:
REMARK  status: ('A' for Active; 'I' for Inactive)
REMARK    1  A    between atoms: C1_1  and  O1_2
REMARK    2  A    between atoms: O1_2  and  C2_3
REMARK    3  A    between atoms: C4_5  and  O6_27
REMARK    4  A    between atoms: C7_8  and  C8_9
REMARK    5  A    between atoms: C9_10  and  C10_11
REMARK    6  A    between atoms: C10_11  and  C11_13
REMARK    7  A    between atoms: C11_13  and  C12_14
REMARK    8  A    between atoms: C12_14  and  C13_16
REMARK    9  A    between atoms: C14_17  and  C15_18
REMARK   10  A    between atoms: C17_20  and  O5_25
REMARK   11  A    between atoms: C18_21  and  O4_24
REMARK   12  A    between atoms: O5_25  and  C21_26
REMARK                            x       y       z     vdW  Elec       q    Type
REMARK                         _______ _______ _______ _____ _____    ______ ____
ROOT
ATOM      1  C11 UNL     1       5.305  63.434  44.529  0.00  0.00    +0.000 C 
ENDROOT
BRANCH   1   2
ATOM      2  C10 UNL     1       6.596  64.172  44.746  0.00  0.00    +0.000 C 
ATOM      3  O2  UNL     1       7.513  63.628  45.417  0.00  0.00    +0.000 OA
BRANCH   2   5
ATOM      4  C8  UNL     1       5.778  66.353  43.933  0.00  0.00    +0.000 C 
ATOM      5  C9  UNL     1       6.793  65.505  44.142  0.00  0.00    +0.000 C 
BRANCH   4  11
ATOM      6  C2  UNL     1       5.450  68.870  43.977  0.00  0.00    +0.000 A 
ATOM      7  C3  UNL     1       5.662  70.123  43.367  0.00  0.00    +0.000 A 
ATOM      8  C4  UNL     1       6.403  70.223  42.183  0.00  0.00    +0.000 A 
ATOM      9  C5  UNL     1       6.943  69.074  41.603  0.00  0.00    +0.000 A 
ATOM     10  C6  UNL     1       6.733  67.827  42.190  0.00  0.00    +0.000 A 
ATOM     11  C7  UNL     1       5.969  67.706  43.362  0.00  0.00    +0.000 A 
BRANCH   6  13
ATOM     12  C1  UNL     1       3.396  69.109  45.395  0.00  0.00    +0.000 C 
ATOM     13  O1  UNL     1       4.761  68.756  45.197  0.00  0.00    +0.000 OA
ENDBRANCH   6  13
BRANCH   8  14
ATOM     14  O6  UNL     1       6.616  71.461  41.581  0.00  0.00    +0.000 OA
ATOM     15  H20 UNL     1       7.525  71.727  41.219  0.00  0.00    +0.000 HD
ENDBRANCH   8  14
ENDBRANCH   4  11
ENDBRANCH   2   5
ENDBRANCH   1   2
BRANCH   1  16
ATOM     16  C12 UNL     1       5.396  62.431  43.402  0.00  0.00    +0.000 C 
ATOM     17  O3  UNL     1       5.786  61.255  43.635  0.00  0.00    +0.000 OA
BRANCH  16  18
ATOM     18  C13 UNL     1       5.039  62.782  42.010  0.00  0.00    +0.000 C 
ATOM     19  C14 UNL     1       4.501  63.961  41.661  0.00  0.00    +0.000 C 
BRANCH  19  20
ATOM     20  C15 UNL     1       4.154  64.320  40.264  0.00  0.00    +0.000 A 
ATOM     21  C16 UNL     1       4.916  65.231  39.505  0.00  0.00    +0.000 A 
ATOM     22  C17 UNL     1       4.557  65.537  38.177  0.00  0.00    +0.000 A 
ATOM     23  C18 UNL     1       3.436  64.917  37.608  0.00  0.00    +0.000 A 
ATOM     24  C19 UNL     1       2.688  63.999  38.353  0.00  0.00    +0.000 A 
ATOM     25  C20 UNL     1       3.047  63.698  39.668  0.00  0.00    +0.000 A 
BRANCH  23  26
ATOM     26  O4  UNL     1       3.075  65.218  36.296  0.00  0.00    +0.000 OA
ATOM     27  H16 UNL     1       3.114  66.166  35.938  0.00  0.00    +0.000 HD
ENDBRANCH  23  26
BRANCH  22  28
ATOM     28  O5  UNL     1       5.288  66.444  37.393  0.00  0.00    +0.000 OA
ATOM     29  C21 UNL     1       5.797  67.689  37.862  0.00  0.00    +0.000 C 
ENDBRANCH  22  28
ENDBRANCH  19  20
ENDBRANCH  16  18
ENDBRANCH   1  16
TORSDOF 10
ENDMDL
MODEL 7
REMARK VINA RESULT:      -4.6      2.863      7.746
REMARK  Name = .\curcumin.pdb
REMARK  12 active torsions:
REMARK  status: ('A' for Active; 'I' for Inactive)
REMARK    1  A    between atoms: C1_1  and  O1_2
REMARK    2  A    between atoms: O1_2  and  C2_3
REMARK    3  A    between atoms: C4_5  and  O6_27
REMARK    4  A    between atoms: C7_8  and  C8_9
REMARK    5  A    between atoms: C9_10  and  C10_11
REMARK    6  A    between atoms: C10_11  and  C11_13
REMARK    7  A    between atoms: C11_13  and  C12_14
REMARK    8  A    between atoms: C12_14  and  C13_16
REMARK    9  A    between atoms: C14_17  and  C15_18
REMARK   10  A    between atoms: C17_20  and  O5_25
REMARK   11  A    between atoms: C18_21  and  O4_24
REMARK   12  A    between atoms: O5_25  and  C21_26
REMARK                            x       y       z     vdW  Elec       q    Type
REMARK                         _______ _______ _______ _____ _____    ______ ____
ROOT
ATOM      1  C11 UNL     1       7.805  68.864  38.519  0.00  0.00    +0.000 C 
ENDROOT
BRANCH   1   2
ATOM      2  C10 UNL     1       7.703  68.794  40.017  0.00  0.00    +0.000 C 
ATOM      3  O2  UNL     1       7.873  69.842  40.696  0.00  0.00    +0.000 OA
BRANCH   2   5
ATOM      4  C8  UNL     1       6.463  67.433  41.658  0.00  0.00    +0.000 C 
ATOM      5  C9  UNL     1       7.368  67.515  40.674  0.00  0.00    +0.000 C 
BRANCH   4  11
ATOM      6  C2  UNL     1       5.570  66.083  43.613  0.00  0.00    +0.000 A 
ATOM      7  C3  UNL     1       5.250  64.824  44.163  0.00  0.00    +0.000 A 
ATOM      8  C4  UNL     1       5.416  63.655  43.409  0.00  0.00    +0.000 A 
ATOM      9  C5  UNL     1       5.897  63.735  42.101  0.00  0.00    +0.000 A 
ATOM     10  C6  UNL     1       6.226  64.973  41.549  0.00  0.00    +0.000 A 
ATOM     11  C7  UNL     1       6.092  66.151  42.300  0.00  0.00    +0.000 A 
BRANCH   6  13
ATOM     12  C1  UNL     1       4.107  67.661  44.900  0.00  0.00    +0.000 C 
ATOM     13  O1  UNL     1       5.353  67.271  44.331  0.00  0.00    +0.000 OA
ENDBRANCH   6  13
BRANCH   8  14
ATOM     14  O6  UNL     1       5.098  62.411  43.949  0.00  0.00    +0.000 OA
ATOM     15  H20 UNL     1       5.814  61.731  44.175  0.00  0.00    +0.000 HD
ENDBRANCH   8  14
ENDBRANCH   4  11
ENDBRANCH   2   5
ENDBRANCH   1   2
BRANCH   1  16
ATOM     16  C12 UNL     1       6.558  68.357  37.831  0.00  0.00    +0.000 C 
ATOM     17  O3  UNL     1       5.854  69.144  37.143  0.00  0.00    +0.000 OA
BRANCH  16  18
ATOM     18  C13 UNL     1       6.123  66.947  37.937  0.00  0.00    +0.000 C 
ATOM     19  C14 UNL     1       4.859  66.582  38.203  0.00  0.00    +0.000 C 
BRANCH  19  20
ATOM     20  C15 UNL     1       4.418  65.169  38.297  0.00  0.00    +0.000 A 
ATOM     21  C16 UNL     1       3.124  64.807  38.725  0.00  0.00    +0.000 A 
ATOM     22  C17 UNL     1       2.742  63.453  38.790  0.00  0.00    +0.000 A 
ATOM     23  C18 UNL     1       3.658  62.461  38.414  0.00  0.00    +0.000 A 
ATOM     24  C19 UNL     1       4.937  62.817  37.972  0.00  0.00    +0.000 A 
ATOM     25  C20 UNL     1       5.312  64.160  37.908  0.00  0.00    +0.000 A 
BRANCH  23  26
ATOM     26  O4  UNL     1       3.286  61.119  38.479  0.00  0.00    +0.000 OA
ATOM     27  H16 UNL     1       2.313  60.835  38.437  0.00  0.00    +0.000 HD
ENDBRANCH  23  26
BRANCH  22  28
ATOM     28  O5  UNL     1       1.465  63.054  39.217  0.00  0.00    +0.000 OA
ATOM     29  C21 UNL     1       1.083  62.893  40.579  0.00  0.00    +0.000 C 
ENDBRANCH  22  28
ENDBRANCH  19  20
ENDBRANCH  16  18
ENDBRANCH   1  16
TORSDOF 10
ENDMDL
MODEL 8
REMARK VINA RESULT:      -4.6      1.948      5.942
REMARK  Name = .\curcumin.pdb
REMARK  12 active torsions:
REMARK  status: ('A' for Active; 'I' for Inactive)
REMARK    1  A    between atoms: C1_1  and  O1_2
REMARK    2  A    between atoms: O1_2  and  C2_3
REMARK    3  A    between atoms: C4_5  and  O6_27
REMARK    4  A    between atoms: C7_8  and  C8_9
REMARK    5  A    between atoms: C9_10  and  C10_11
REMARK    6  A    between atoms: C10_11  and  C11_13
REMARK    7  A    between atoms: C11_13  and  C12_14
REMARK    8  A    between atoms: C12_14  and  C13_16
REMARK    9  A    between atoms: C14_17  and  C15_18
REMARK   10  A    between atoms: C17_20  and  O5_25
REMARK   11  A    between atoms: C18_21  and  O4_24
REMARK   12  A    between atoms: O5_25  and  C21_26
REMARK                            x       y       z     vdW  Elec       q    Type
REMARK                         _______ _______ _______ _____ _____    ______ ____
ROOT
ATOM      1  C11 UNL     1       6.602  60.953  45.951  0.00  0.00    +0.000 C 
ENDROOT
BRANCH   1   2
ATOM      2  C10 UNL     1       7.271  62.282  46.165  0.00  0.00    +0.000 C 
ATOM      3  O2  UNL     1       7.712  62.573  47.310  0.00  0.00    +0.000 OA
BRANCH   2   5
ATOM      4  C8  UNL     1       6.579  64.206  44.786  0.00  0.00    +0.000 C 
ATOM      5  C9  UNL     1       7.442  63.212  45.033  0.00  0.00    +0.000 C 
BRANCH   4  11
ATOM      6  C2  UNL     1       6.132  66.436  43.659  0.00  0.00    +0.000 A 
ATOM      7  C3  UNL     1       6.342  67.294  42.560  0.00  0.00    +0.000 A 
ATOM      8  C4  UNL     1       7.185  66.912  41.509  0.00  0.00    +0.000 A 
ATOM      9  C5  UNL     1       7.829  65.674  41.550  0.00  0.00    +0.000 A 
ATOM     10  C6  UNL     1       7.623  64.812  42.627  0.00  0.00    +0.000 A 
ATOM     11  C7  UNL     1       6.759  65.167  43.675  0.00  0.00    +0.000 A 
BRANCH   6  13
ATOM     12  C1  UNL     1       3.935  67.061  44.692  0.00  0.00    +0.000 C 
ATOM     13  O1  UNL     1       5.338  66.826  44.751  0.00  0.00    +0.000 OA
ENDBRANCH   6  13
BRANCH   8  14
ATOM     14  O6  UNL     1       7.396  67.760  40.424  0.00  0.00    +0.000 OA
ATOM     15  H20 UNL     1       6.725  67.832  39.668  0.00  0.00    +0.000 HD
ENDBRANCH   8  14
ENDBRANCH   4  11
ENDBRANCH   2   5
ENDBRANCH   1   2
BRANCH   1  16
ATOM     16  C12 UNL     1       6.515  60.580  44.489  0.00  0.00    +0.000 C 
ATOM     17  O3  UNL     1       7.275  59.692  44.018  0.00  0.00    +0.000 OA
BRANCH  16  18
ATOM     18  C13 UNL     1       5.553  61.229  43.572  0.00  0.00    +0.000 C 
ATOM     19  C14 UNL     1       5.845  61.549  42.301  0.00  0.00    +0.000 C 
BRANCH  19  20
ATOM     20  C15 UNL     1       4.878  62.189  41.376  0.00  0.00    +0.000 A 
ATOM     21  C16 UNL     1       4.788  61.837  40.013  0.00  0.00    +0.000 A 
ATOM     22  C17 UNL     1       3.848  62.462  39.171  0.00  0.00    +0.000 A 
ATOM     23  C18 UNL     1       2.989  63.435  39.700  0.00  0.00    +0.000 A 
ATOM     24  C19 UNL     1       3.063  63.774  41.056  0.00  0.00    +0.000 A 
ATOM     25  C20 UNL     1       3.996  63.152  41.888  0.00  0.00    +0.000 A 
BRANCH  23  26
ATOM     26  O4  UNL     1       2.059  64.058  38.870  0.00  0.00    +0.000 OA
ATOM     27  H16 UNL     1       2.315  64.406  37.952  0.00  0.00    +0.000 HD
ENDBRANCH  23  26
BRANCH  22  28
ATOM     28  O5  UNL     1       3.734  62.143  37.808  0.00  0.00    +0.000 OA
ATOM     29  C21 UNL     1       4.487  62.760  36.768  0.00  0.00    +0.000 C 
ENDBRANCH  22  28
ENDBRANCH  19  20
ENDBRANCH  16  18
ENDBRANCH   1  16
TORSDOF 10
ENDMDL
MODEL 9
REMARK VINA RESULT:      -4.5      2.671      6.910
REMARK  Name = .\curcumin.pdb
REMARK  12 active torsions:
REMARK  status: ('A' for Active; 'I' for Inactive)
REMARK    1  A    between atoms: C1_1  and  O1_2
REMARK    2  A    between atoms: O1_2  and  C2_3
REMARK    3  A    between atoms: C4_5  and  O6_27
REMARK    4  A    between atoms: C7_8  and  C8_9
REMARK    5  A    between atoms: C9_10  and  C10_11
REMARK    6  A    between atoms: C10_11  and  C11_13
REMARK    7  A    between atoms: C11_13  and  C12_14
REMARK    8  A    between atoms: C12_14  and  C13_16
REMARK    9  A    between atoms: C14_17  and  C15_18
REMARK   10  A    between atoms: C17_20  and  O5_25
REMARK   11  A    between atoms: C18_21  and  O4_24
REMARK   12  A    between atoms: O5_25  and  C21_26
REMARK                            x       y       z     vdW  Elec       q    Type
REMARK                         _______ _______ _______ _____ _____    ______ ____
ROOT
ATOM      1  C11 UNL     1       4.595  69.298  45.812  0.00  0.00    +0.000 C 
ENDROOT
BRANCH   1   2
ATOM      2  C10 UNL     1       5.843  69.645  45.049  0.00  0.00    +0.000 C 
ATOM      3  O2  UNL     1       6.865  70.027  45.678  0.00  0.00    +0.000 OA
BRANCH   2   5
ATOM      4  C8  UNL     1       6.786  68.740  42.957  0.00  0.00    +0.000 C 
ATOM      5  C9  UNL     1       5.874  69.496  43.580  0.00  0.00    +0.000 C 
BRANCH   4  11
ATOM      6  C2  UNL     1       6.926  67.279  40.885  0.00  0.00    +0.000 A 
ATOM      7  C3  UNL     1       6.948  67.183  39.478  0.00  0.00    +0.000 A 
ATOM      8  C4  UNL     1       6.821  68.329  38.684  0.00  0.00    +0.000 A 
ATOM      9  C5  UNL     1       6.664  69.578  39.286  0.00  0.00    +0.000 A 
ATOM     10  C6  UNL     1       6.649  69.689  40.676  0.00  0.00    +0.000 A 
ATOM     11  C7  UNL     1       6.804  68.554  41.488  0.00  0.00    +0.000 A 
BRANCH   6  13
ATOM     12  C1  UNL     1       7.295  64.825  41.234  0.00  0.00    +0.000 C 
ATOM     13  O1  UNL     1       6.991  66.136  41.698  0.00  0.00    +0.000 OA
ENDBRANCH   6  13
BRANCH   8  14
ATOM     14  O6  UNL     1       6.839  68.234  37.294  0.00  0.00    +0.000 OA
ATOM     15  H20 UNL     1       6.379  67.475  36.807  0.00  0.00    +0.000 HD
ENDBRANCH   8  14
ENDBRANCH   4  11
ENDBRANCH   2   5
ENDBRANCH   1   2
BRANCH   1  16
ATOM     16  C12 UNL     1       3.722  68.310  45.074  0.00  0.00    +0.000 C 
ATOM     17  O3  UNL     1       2.570  68.650  44.690  0.00  0.00    +0.000 OA
BRANCH  16  18
ATOM     18  C13 UNL     1       4.175  66.933  44.779  0.00  0.00    +0.000 C 
ATOM     19  C14 UNL     1       3.715  66.210  43.745  0.00  0.00    +0.000 C 
BRANCH  19  20
ATOM     20  C15 UNL     1       4.176  64.834  43.440  0.00  0.00    +0.000 A 
ATOM     21  C16 UNL     1       3.719  64.114  42.317  0.00  0.00    +0.000 A 
ATOM     22  C17 UNL     1       4.191  62.812  42.058  0.00  0.00    +0.000 A 
ATOM     23  C18 UNL     1       5.133  62.237  42.921  0.00  0.00    +0.000 A 
ATOM     24  C19 UNL     1       5.603  62.956  44.026  0.00  0.00    +0.000 A 
ATOM     25  C20 UNL     1       5.134  64.246  44.280  0.00  0.00    +0.000 A 
BRANCH  23  26
ATOM     26  O4  UNL     1       5.602  60.949  42.670  0.00  0.00    +0.000 OA
ATOM     27  H16 UNL     1       5.306  60.426  41.853  0.00  0.00    +0.000 HD
ENDBRANCH  23  26
BRANCH  22  28
ATOM     28  O5  UNL     1       3.753  62.062  40.954  0.00  0.00    +0.000 OA
ATOM     29  C21 UNL     1       2.459  62.167  40.369  0.00  0.00    +0.000 C 
ENDBRANCH  22  28
ENDBRANCH  19  20
ENDBRANCH  16  18
ENDBRANCH   1  16
TORSDOF 10
ENDMDL
