MODEL 1
REMARK VINA RESULT:      -4.4      0.000      0.000
REMARK  Name = .\curcumin.pdb
REMARK  12 active torsions:
REMARK  status: ('A' for Active; 'I' for Inactive)
REMARK    1  A    between atoms: C1_1  and  O1_2
REMARK    2  A    between atoms: O1_2  and  C2_3
REMARK    3  A    between atoms: C4_5  and  O6_27
REMARK    4  A    between atoms: C7_8  and  C8_9
REMARK    5  A    between atoms: C9_10  and  C10_11
REMARK    6  A    between atoms: C10_11  and  C11_13
REMARK    7  A    between atoms: C11_13  and  C12_14
REMARK    8  A    between atoms: C12_14  and  C13_16
REMARK    9  A    between atoms: C14_17  and  C15_18
REMARK   10  A    between atoms: C17_20  and  O5_25
REMARK   11  A    between atoms: C18_21  and  O4_24
REMARK   12  A    between atoms: O5_25  and  C21_26
REMARK                            x       y       z     vdW  Elec       q    Type
REMARK                         _______ _______ _______ _____ _____    ______ ____
ROOT
ATOM      1  C11 UNL     1     -27.854  43.036   5.926  0.00  0.00    +0.000 C 
ENDROOT
BRANCH   1   2
ATOM      2  C10 UNL     1     -26.764  42.838   4.910  0.00  0.00    +0.000 C 
ATOM      3  O2  UNL     1     -26.594  43.705   4.010  0.00  0.00    +0.000 OA
BRANCH   2   5
ATOM      4  C8  UNL     1     -25.744  40.793   3.982  0.00  0.00    +0.000 C 
ATOM      5  C9  UNL     1     -25.882  41.658   4.995  0.00  0.00    +0.000 C 
BRANCH   4  11
ATOM      6  C2  UNL     1     -25.064  38.445   3.299  0.00  0.00    +0.000 A 
ATOM      7  C3  UNL     1     -24.160  37.369   3.417  0.00  0.00    +0.000 A 
ATOM      8  C4  UNL     1     -23.029  37.477   4.237  0.00  0.00    +0.000 A 
ATOM      9  C5  UNL     1     -22.790  38.659   4.939  0.00  0.00    +0.000 A 
ATOM     10  C6  UNL     1     -23.682  39.727   4.838  0.00  0.00    +0.000 A 
ATOM     11  C7  UNL     1     -24.835  39.626   4.043  0.00  0.00    +0.000 A 
BRANCH   6  13
ATOM     12  C1  UNL     1     -27.122  37.319   2.413  0.00  0.00    +0.000 C 
ATOM     13  O1  UNL     1     -26.171  38.378   2.435  0.00  0.00    +0.000 OA
ENDBRANCH   6  13
BRANCH   8  14
ATOM     14  O6  UNL     1     -22.133  36.417   4.353  0.00  0.00    +0.000 OA
ATOM     15  H20 UNL     1     -21.132  36.556   4.273  0.00  0.00    +0.000 HD
ENDBRANCH   8  14
ENDBRANCH   4  11
ENDBRANCH   2   5
ENDBRANCH   1   2
BRANCH   1  16
ATOM     16  C12 UNL     1     -27.477  42.499   7.288  0.00  0.00    +0.000 C 
ATOM     17  O3  UNL     1     -27.935  43.043   8.329  0.00  0.00    +0.000 OA
BRANCH  16  18
ATOM     18  C13 UNL     1     -26.575  41.338   7.449  0.00  0.00    +0.000 C 
ATOM     19  C14 UNL     1     -25.435  41.381   8.156  0.00  0.00    +0.000 C 
BRANCH  19  20
ATOM     20  C15 UNL     1     -24.535  40.214   8.330  0.00  0.00    +0.000 A 
ATOM     21  C16 UNL     1     -24.975  38.886   8.153  0.00  0.00    +0.000 A 
ATOM     22  C17 UNL     1     -24.084  37.807   8.317  0.00  0.00    +0.000 A 
ATOM     23  C18 UNL     1     -22.747  38.063   8.648  0.00  0.00    +0.000 A 
ATOM     24  C19 UNL     1     -22.302  39.381   8.806  0.00  0.00    +0.000 A 
ATOM     25  C20 UNL     1     -23.187  40.448   8.642  0.00  0.00    +0.000 A 
BRANCH  23  26
ATOM     26  O4  UNL     1     -21.862  36.999   8.813  0.00  0.00    +0.000 OA
ATOM     27  H16 UNL     1     -21.278  36.670   8.052  0.00  0.00    +0.000 HD
ENDBRANCH  23  26
BRANCH  22  28
ATOM     28  O5  UNL     1     -24.488  36.472   8.156  0.00  0.00    +0.000 OA
ATOM     29  C21 UNL     1     -25.382  36.014   7.147  0.00  0.00    +0.000 C 
ENDBRANCH  22  28
ENDBRANCH  19  20
ENDBRANCH  16  18
ENDBRANCH   1  16
TORSDOF 10
ENDMDL
MODEL 2
REMARK VINA RESULT:      -3.6      2.388      5.887
REMARK  Name = .\curcumin.pdb
REMARK  12 active torsions:
REMARK  status: ('A' for Active; 'I' for Inactive)
REMARK    1  A    between atoms: C1_1  and  O1_2
REMARK    2  A    between atoms: O1_2  and  C2_3
REMARK    3  A    between atoms: C4_5  and  O6_27
REMARK    4  A    between atoms: C7_8  and  C8_9
REMARK    5  A    between atoms: C9_10  and  C10_11
REMARK    6  A    between atoms: C10_11  and  C11_13
REMARK    7  A    between atoms: C11_13  and  C12_14
REMARK    8  A    between atoms: C12_14  and  C13_16
REMARK    9  A    between atoms: C14_17  and  C15_18
REMARK   10  A    between atoms: C17_20  and  O5_25
REMARK   11  A    between atoms: C18_21  and  O4_24
REMARK   12  A    between atoms: O5_25  and  C21_26
REMARK                            x       y       z     vdW  Elec       q    Type
REMARK                         _______ _______ _______ _____ _____    ______ ____
ROOT
ATOM      1  C11 UNL     1     -23.398  37.552   2.096  0.00  0.00    +0.000 C 
ENDROOT
BRANCH   1   2
ATOM      2  C10 UNL     1     -23.267  36.433   3.091  0.00  0.00    +0.000 C 
ATOM      3  O2  UNL     1     -22.190  35.781   3.147  0.00  0.00    +0.000 OA
BRANCH   2   5
ATOM      4  C8  UNL     1     -25.327  37.032   4.307  0.00  0.00    +0.000 C 
ATOM      5  C9  UNL     1     -24.378  36.134   4.016  0.00  0.00    +0.000 C 
BRANCH   4  11
ATOM      6  C2  UNL     1     -27.633  36.069   4.755  0.00  0.00    +0.000 A 
ATOM      7  C3  UNL     1     -28.682  35.829   5.665  0.00  0.00    +0.000 A 
ATOM      8  C4  UNL     1     -28.562  36.212   7.007  0.00  0.00    +0.000 A 
ATOM      9  C5  UNL     1     -27.393  36.832   7.451  0.00  0.00    +0.000 A 
ATOM     10  C6  UNL     1     -26.351  37.084   6.558  0.00  0.00    +0.000 A 
ATOM     11  C7  UNL     1     -26.466  36.732   5.204  0.00  0.00    +0.000 A 
BRANCH   6  13
ATOM     12  C1  UNL     1     -28.714  36.039   2.493  0.00  0.00    +0.000 C 
ATOM     13  O1  UNL     1     -27.710  35.638   3.419  0.00  0.00    +0.000 OA
ENDBRANCH   6  13
BRANCH   8  14
ATOM     14  O6  UNL     1     -29.597  35.972   7.909  0.00  0.00    +0.000 OA
ATOM     15  H20 UNL     1     -29.530  36.253   8.881  0.00  0.00    +0.000 HD
ENDBRANCH   8  14
ENDBRANCH   4  11
ENDBRANCH   2   5
ENDBRANCH   1   2
BRANCH   1  16
ATOM     16  C12 UNL     1     -22.909  38.873   2.645  0.00  0.00    +0.000 C 
ATOM     17  O3  UNL     1     -22.013  39.516   2.036  0.00  0.00    +0.000 OA
BRANCH  16  18
ATOM     18  C13 UNL     1     -23.452  39.451   3.894  0.00  0.00    +0.000 C 
ATOM     19  C14 UNL     1     -24.522  40.260   3.929  0.00  0.00    +0.000 C 
BRANCH  19  20
ATOM     20  C15 UNL     1     -25.076  40.831   5.181  0.00  0.00    +0.000 A 
ATOM     21  C16 UNL     1     -26.207  41.673   5.194  0.00  0.00    +0.000 A 
ATOM     22  C17 UNL     1     -26.707  42.185   6.407  0.00  0.00    +0.000 A 
ATOM     23  C18 UNL     1     -26.077  41.842   7.611  0.00  0.00    +0.000 A 
ATOM     24  C19 UNL     1     -24.965  40.992   7.604  0.00  0.00    +0.000 A 
ATOM     25  C20 UNL     1     -24.473  40.485   6.400  0.00  0.00    +0.000 A 
BRANCH  23  26
ATOM     26  O4  UNL     1     -26.566  42.348   8.814  0.00  0.00    +0.000 OA
ATOM     27  H16 UNL     1     -27.098  43.211   8.849  0.00  0.00    +0.000 HD
ENDBRANCH  23  26
BRANCH  22  28
ATOM     28  O5  UNL     1     -27.827  43.032   6.458  0.00  0.00    +0.000 OA
ATOM     29  C21 UNL     1     -29.042  42.723   7.132  0.00  0.00    +0.000 C 
ENDBRANCH  22  28
ENDBRANCH  19  20
ENDBRANCH  16  18
ENDBRANCH   1  16
TORSDOF 10
ENDMDL
MODEL 3
REMARK VINA RESULT:      -3.3      2.309      6.211
REMARK  Name = .\curcumin.pdb
REMARK  12 active torsions:
REMARK  status: ('A' for Active; 'I' for Inactive)
REMARK    1  A    between atoms: C1_1  and  O1_2
REMARK    2  A    between atoms: O1_2  and  C2_3
REMARK    3  A    between atoms: C4_5  and  O6_27
REMARK    4  A    between atoms: C7_8  and  C8_9
REMARK    5  A    between atoms: C9_10  and  C10_11
REMARK    6  A    between atoms: C10_11  and  C11_13
REMARK    7  A    between atoms: C11_13  and  C12_14
REMARK    8  A    between atoms: C12_14  and  C13_16
REMARK    9  A    between atoms: C14_17  and  C15_18
REMARK   10  A    between atoms: C17_20  and  O5_25
REMARK   11  A    between atoms: C18_21  and  O4_24
REMARK   12  A    between atoms: O5_25  and  C21_26
REMARK                            x       y       z     vdW  Elec       q    Type
REMARK                         _______ _______ _______ _____ _____    ______ ____
ROOT
ATOM      1  C11 UNL     1     -22.852  37.058   6.284  0.00  0.00    +0.000 C 
ENDROOT
BRANCH   1   2
ATOM      2  C10 UNL     1     -23.965  36.139   6.702  0.00  0.00    +0.000 C 
ATOM      3  O2  UNL     1     -23.977  35.678   7.875  0.00  0.00    +0.000 OA
BRANCH   2   5
ATOM      4  C8  UNL     1     -26.106  36.624   5.576  0.00  0.00    +0.000 C 
ATOM      5  C9  UNL     1     -25.051  35.819   5.755  0.00  0.00    +0.000 C 
BRANCH   4  11
ATOM      6  C2  UNL     1     -28.454  35.852   4.999  0.00  0.00    +0.000 A 
ATOM      7  C3  UNL     1     -29.426  35.583   4.014  0.00  0.00    +0.000 A 
ATOM      8  C4  UNL     1     -29.151  35.817   2.660  0.00  0.00    +0.000 A 
ATOM      9  C5  UNL     1     -27.908  36.325   2.282  0.00  0.00    +0.000 A 
ATOM     10  C6  UNL     1     -26.934  36.586   3.245  0.00  0.00    +0.000 A 
ATOM     11  C7  UNL     1     -27.183  36.331   4.603  0.00  0.00    +0.000 A 
BRANCH   6  13
ATOM     12  C1  UNL     1     -29.964  36.023   6.993  0.00  0.00    +0.000 C 
ATOM     13  O1  UNL     1     -28.732  35.682   6.366  0.00  0.00    +0.000 OA
ENDBRANCH   6  13
BRANCH   8  14
ATOM     14  O6  UNL     1     -30.112  35.555   1.685  0.00  0.00    +0.000 OA
ATOM     15  H20 UNL     1     -30.080  36.001   0.776  0.00  0.00    +0.000 HD
ENDBRANCH   8  14
ENDBRANCH   4  11
ENDBRANCH   2   5
ENDBRANCH   1   2
BRANCH   1  16
ATOM     16  C12 UNL     1     -22.878  38.374   7.028  0.00  0.00    +0.000 C 
ATOM     17  O3  UNL     1     -21.866  38.751   7.677  0.00  0.00    +0.000 OA
BRANCH  16  18
ATOM     18  C13 UNL     1     -24.069  39.252   7.024  0.00  0.00    +0.000 C 
ATOM     19  C14 UNL     1     -24.212  40.298   6.195  0.00  0.00    +0.000 C 
BRANCH  19  20
ATOM     20  C15 UNL     1     -25.410  41.173   6.181  0.00  0.00    +0.000 A 
ATOM     21  C16 UNL     1     -26.257  41.314   7.299  0.00  0.00    +0.000 A 
ATOM     22  C17 UNL     1     -27.379  42.164   7.247  0.00  0.00    +0.000 A 
ATOM     23  C18 UNL     1     -27.644  42.882   6.073  0.00  0.00    +0.000 A 
ATOM     24  C19 UNL     1     -26.795  42.759   4.967  0.00  0.00    +0.000 A 
ATOM     25  C20 UNL     1     -25.683  41.916   5.023  0.00  0.00    +0.000 A 
BRANCH  23  26
ATOM     26  O4  UNL     1     -28.754  43.723   6.015  0.00  0.00    +0.000 OA
ATOM     27  H16 UNL     1     -28.844  44.436   5.299  0.00  0.00    +0.000 HD
ENDBRANCH  23  26
BRANCH  22  28
ATOM     28  O5  UNL     1     -28.249  42.325   8.337  0.00  0.00    +0.000 OA
ATOM     29  C21 UNL     1     -29.509  41.673   8.468  0.00  0.00    +0.000 C 
ENDBRANCH  22  28
ENDBRANCH  19  20
ENDBRANCH  16  18
ENDBRANCH   1  16
TORSDOF 10
ENDMDL
MODEL 4
REMARK VINA RESULT:      -3.3      2.422      5.994
REMARK  Name = .\curcumin.pdb
REMARK  12 active torsions:
REMARK  status: ('A' for Active; 'I' for Inactive)
REMARK    1  A    between atoms: C1_1  and  O1_2
REMARK    2  A    between atoms: O1_2  and  C2_3
REMARK    3  A    between atoms: C4_5  and  O6_27
REMARK    4  A    between atoms: C7_8  and  C8_9
REMARK    5  A    between atoms: C9_10  and  C10_11
REMARK    6  A    between atoms: C10_11  and  C11_13
REMARK    7  A    between atoms: C11_13  and  C12_14
REMARK    8  A    between atoms: C12_14  and  C13_16
REMARK    9  A    between atoms: C14_17  and  C15_18
REMARK   10  A    between atoms: C17_20  and  O5_25
REMARK   11  A    between atoms: C18_21  and  O4_24
REMARK   12  A    between atoms: O5_25  and  C21_26
REMARK                            x       y       z     vdW  Elec       q    Type
REMARK                         _______ _______ _______ _____ _____    ______ ____
ROOT
ATOM      1  C11 UNL     1     -23.085  37.617   1.821  0.00  0.00    +0.000 C 
ENDROOT
BRANCH   1   2
ATOM      2  C10 UNL     1     -23.045  36.488   2.813  0.00  0.00    +0.000 C 
ATOM      3  O2  UNL     1     -21.996  35.797   2.920  0.00  0.00    +0.000 OA
BRANCH   2   5
ATOM      4  C8  UNL     1     -25.403  36.797   3.465  0.00  0.00    +0.000 C 
ATOM      5  C9  UNL     1     -24.212  36.224   3.678  0.00  0.00    +0.000 C 
BRANCH   4  11
ATOM      6  C2  UNL     1     -26.566  36.615   5.714  0.00  0.00    +0.000 A 
ATOM      7  C3  UNL     1     -27.733  36.316   6.447  0.00  0.00    +0.000 A 
ATOM      8  C4  UNL     1     -28.914  35.952   5.787  0.00  0.00    +0.000 A 
ATOM      9  C5  UNL     1     -28.940  35.889   4.393  0.00  0.00    +0.000 A 
ATOM     10  C6  UNL     1     -27.790  36.173   3.657  0.00  0.00    +0.000 A 
ATOM     11  C7  UNL     1     -26.590  36.512   4.303  0.00  0.00    +0.000 A 
BRANCH   6  13
ATOM     12  C1  UNL     1     -25.349  37.832   7.537  0.00  0.00    +0.000 C 
ATOM     13  O1  UNL     1     -25.390  37.041   6.354  0.00  0.00    +0.000 OA
ENDBRANCH   6  13
BRANCH   8  14
ATOM     14  O6  UNL     1     -30.069  35.660   6.509  0.00  0.00    +0.000 OA
ATOM     15  H20 UNL     1     -30.916  35.343   6.051  0.00  0.00    +0.000 HD
ENDBRANCH   8  14
ENDBRANCH   4  11
ENDBRANCH   2   5
ENDBRANCH   1   2
BRANCH   1  16
ATOM     16  C12 UNL     1     -22.678  38.938   2.433  0.00  0.00    +0.000 C 
ATOM     17  O3  UNL     1     -21.864  39.688   1.830  0.00  0.00    +0.000 OA
BRANCH  16  18
ATOM     18  C13 UNL     1     -23.208  39.393   3.737  0.00  0.00    +0.000 C 
ATOM     19  C14 UNL     1     -23.998  40.469   3.878  0.00  0.00    +0.000 C 
BRANCH  19  20
ATOM     20  C15 UNL     1     -24.540  40.921   5.183  0.00  0.00    +0.000 A 
ATOM     21  C16 UNL     1     -23.743  41.015   6.342  0.00  0.00    +0.000 A 
ATOM     22  C17 UNL     1     -24.296  41.459   7.559  0.00  0.00    +0.000 A 
ATOM     23  C18 UNL     1     -25.649  41.820   7.609  0.00  0.00    +0.000 A 
ATOM     24  C19 UNL     1     -26.439  41.745   6.457  0.00  0.00    +0.000 A 
ATOM     25  C20 UNL     1     -25.888  41.305   5.252  0.00  0.00    +0.000 A 
BRANCH  23  26
ATOM     26  O4  UNL     1     -26.201  42.258   8.812  0.00  0.00    +0.000 OA
ATOM     27  H16 UNL     1     -25.779  43.008   9.348  0.00  0.00    +0.000 HD
ENDBRANCH  23  26
BRANCH  22  28
ATOM     28  O5  UNL     1     -23.535  41.559   8.736  0.00  0.00    +0.000 OA
ATOM     29  C21 UNL     1     -22.219  42.097   8.802  0.00  0.00    +0.000 C 
ENDBRANCH  22  28
ENDBRANCH  19  20
ENDBRANCH  16  18
ENDBRANCH   1  16
TORSDOF 10
ENDMDL
MODEL 5
REMARK VINA RESULT:      -2.9      1.657      4.952
REMARK  Name = .\curcumin.pdb
REMARK  12 active torsions:
REMARK  status: ('A' for Active; 'I' for Inactive)
REMARK    1  A    between atoms: C1_1  and  O1_2
REMARK    2  A    between atoms: O1_2  and  C2_3
REMARK    3  A    between atoms: C4_5  and  O6_27
REMARK    4  A    between atoms: C7_8  and  C8_9
REMARK    5  A    between atoms: C9_10  and  C10_11
REMARK    6  A    between atoms: C10_11  and  C11_13
REMARK    7  A    between atoms: C11_13  and  C12_14
REMARK    8  A    between atoms: C12_14  and  C13_16
REMARK    9  A    between atoms: C14_17  and  C15_18
REMARK   10  A    between atoms: C17_20  and  O5_25
REMARK   11  A    between atoms: C18_21  and  O4_24
REMARK   12  A    between atoms: O5_25  and  C21_26
REMARK                            x       y       z     vdW  Elec       q    Type
REMARK                         _______ _______ _______ _____ _____    ______ ____
ROOT
ATOM      1  C11 UNL     1     -26.512  42.551   6.752  0.00  0.00    +0.000 C 
ENDROOT
BRANCH   1   2
ATOM      2  C10 UNL     1     -27.069  41.365   7.489  0.00  0.00    +0.000 C 
ATOM      3  O2  UNL     1     -28.312  41.281   7.674  0.00  0.00    +0.000 OA
BRANCH   2   5
ATOM      4  C8  UNL     1     -25.619  39.405   7.113  0.00  0.00    +0.000 C 
ATOM      5  C9  UNL     1     -26.164  40.294   7.953  0.00  0.00    +0.000 C 
BRANCH   4  11
ATOM      6  C2  UNL     1     -25.113  37.044   7.896  0.00  0.00    +0.000 A 
ATOM      7  C3  UNL     1     -24.164  36.094   8.326  0.00  0.00    +0.000 A 
ATOM      8  C4  UNL     1     -22.805  36.426   8.392  0.00  0.00    +0.000 A 
ATOM      9  C5  UNL     1     -22.383  37.705   8.023  0.00  0.00    +0.000 A 
ATOM     10  C6  UNL     1     -23.313  38.656   7.605  0.00  0.00    +0.000 A 
ATOM     11  C7  UNL     1     -24.683  38.349   7.560  0.00  0.00    +0.000 A 
BRANCH   6  13
ATOM     12  C1  UNL     1     -27.037  36.021   6.656  0.00  0.00    +0.000 C 
ATOM     13  O1  UNL     1     -26.473  36.712   7.765  0.00  0.00    +0.000 OA
ENDBRANCH   6  13
BRANCH   8  14
ATOM     14  O6  UNL     1     -21.864  35.488   8.813  0.00  0.00    +0.000 OA
ATOM     15  H20 UNL     1     -21.993  34.953   9.664  0.00  0.00    +0.000 HD
ENDBRANCH   8  14
ENDBRANCH   4  11
ENDBRANCH   2   5
ENDBRANCH   1   2
BRANCH   1  16
ATOM     16  C12 UNL     1     -26.635  42.408   5.253  0.00  0.00    +0.000 C 
ATOM     17  O3  UNL     1     -26.987  43.394   4.552  0.00  0.00    +0.000 OA
BRANCH  16  18
ATOM     18  C13 UNL     1     -26.351  41.131   4.562  0.00  0.00    +0.000 C 
ATOM     19  C14 UNL     1     -25.117  40.741   4.208  0.00  0.00    +0.000 C 
BRANCH  19  20
ATOM     20  C15 UNL     1     -24.829  39.455   3.526  0.00  0.00    +0.000 A 
ATOM     21  C16 UNL     1     -23.570  39.162   2.963  0.00  0.00    +0.000 A 
ATOM     22  C17 UNL     1     -23.335  37.924   2.334  0.00  0.00    +0.000 A 
ATOM     23  C18 UNL     1     -24.364  36.973   2.280  0.00  0.00    +0.000 A 
ATOM     24  C19 UNL     1     -25.609  37.253   2.854  0.00  0.00    +0.000 A 
ATOM     25  C20 UNL     1     -25.838  38.481   3.478  0.00  0.00    +0.000 A 
BRANCH  23  26
ATOM     26  O4  UNL     1     -24.138  35.747   1.657  0.00  0.00    +0.000 OA
ATOM     27  H16 UNL     1     -23.389  35.131   1.954  0.00  0.00    +0.000 HD
ENDBRANCH  23  26
BRANCH  22  28
ATOM     28  O5  UNL     1     -22.097  37.599   1.756  0.00  0.00    +0.000 OA
ATOM     29  C21 UNL     1     -21.862  37.498   0.355  0.00  0.00    +0.000 C 
ENDBRANCH  22  28
ENDBRANCH  19  20
ENDBRANCH  16  18
ENDBRANCH   1  16
TORSDOF 10
ENDMDL
MODEL 6
REMARK VINA RESULT:      -2.9      1.872      5.979
REMARK  Name = .\curcumin.pdb
REMARK  12 active torsions:
REMARK  status: ('A' for Active; 'I' for Inactive)
REMARK    1  A    between atoms: C1_1  and  O1_2
REMARK    2  A    between atoms: O1_2  and  C2_3
REMARK    3  A    between atoms: C4_5  and  O6_27
REMARK    4  A    between atoms: C7_8  and  C8_9
REMARK    5  A    between atoms: C9_10  and  C10_11
REMARK    6  A    between atoms: C10_11  and  C11_13
REMARK    7  A    between atoms: C11_13  and  C12_14
REMARK    8  A    between atoms: C12_14  and  C13_16
REMARK    9  A    between atoms: C14_17  and  C15_18
REMARK   10  A    between atoms: C17_20  and  O5_25
REMARK   11  A    between atoms: C18_21  and  O4_24
REMARK   12  A    between atoms: O5_25  and  C21_26
REMARK                            x       y       z     vdW  Elec       q    Type
REMARK                         _______ _______ _______ _____ _____    ______ ____
ROOT
ATOM      1  C11 UNL     1     -22.864  37.087   6.271  0.00  0.00    +0.000 C 
ENDROOT
BRANCH   1   2
ATOM      2  C10 UNL     1     -24.077  36.249   6.563  0.00  0.00    +0.000 C 
ATOM      3  O2  UNL     1     -24.244  35.790   7.725  0.00  0.00    +0.000 OA
BRANCH   2   5
ATOM      4  C8  UNL     1     -26.188  36.745   5.388  0.00  0.00    +0.000 C 
ATOM      5  C9  UNL     1     -25.077  36.006   5.506  0.00  0.00    +0.000 C 
BRANCH   4  11
ATOM      6  C2  UNL     1     -27.036  37.104   3.022  0.00  0.00    +0.000 A 
ATOM      7  C3  UNL     1     -28.029  36.868   2.050  0.00  0.00    +0.000 A 
ATOM      8  C4  UNL     1     -29.131  36.055   2.340  0.00  0.00    +0.000 A 
ATOM      9  C5  UNL     1     -29.248  35.466   3.600  0.00  0.00    +0.000 A 
ATOM     10  C6  UNL     1     -28.277  35.699   4.575  0.00  0.00    +0.000 A 
ATOM     11  C7  UNL     1     -27.180  36.534   4.310  0.00  0.00    +0.000 A 
BRANCH   6  13
ATOM     12  C1  UNL     1     -24.928  37.538   1.736  0.00  0.00    +0.000 C 
ATOM     13  O1  UNL     1     -25.892  37.867   2.731  0.00  0.00    +0.000 OA
ENDBRANCH   6  13
BRANCH   8  14
ATOM     14  O6  UNL     1     -30.112  35.818   1.379  0.00  0.00    +0.000 OA
ATOM     15  H20 UNL     1     -31.055  36.175   1.483  0.00  0.00    +0.000 HD
ENDBRANCH   8  14
ENDBRANCH   4  11
ENDBRANCH   2   5
ENDBRANCH   1   2
BRANCH   1  16
ATOM     16  C12 UNL     1     -22.829  38.358   7.088  0.00  0.00    +0.000 C 
ATOM     17  O3  UNL     1     -21.865  38.579   7.870  0.00  0.00    +0.000 OA
BRANCH  16  18
ATOM     18  C13 UNL     1     -23.902  39.372   7.005  0.00  0.00    +0.000 C 
ATOM     19  C14 UNL     1     -24.959  39.398   7.832  0.00  0.00    +0.000 C 
BRANCH  19  20
ATOM     20  C15 UNL     1     -26.031  40.421   7.758  0.00  0.00    +0.000 A 
ATOM     21  C16 UNL     1     -26.138  41.329   6.684  0.00  0.00    +0.000 A 
ATOM     22  C17 UNL     1     -27.178  42.278   6.648  0.00  0.00    +0.000 A 
ATOM     23  C18 UNL     1     -28.119  42.309   7.687  0.00  0.00    +0.000 A 
ATOM     24  C19 UNL     1     -28.026  41.398   8.745  0.00  0.00    +0.000 A 
ATOM     25  C20 UNL     1     -26.995  40.458   8.777  0.00  0.00    +0.000 A 
BRANCH  23  26
ATOM     26  O4  UNL     1     -29.149  43.248   7.657  0.00  0.00    +0.000 OA
ATOM     27  H16 UNL     1     -30.113  42.984   7.827  0.00  0.00    +0.000 HD
ENDBRANCH  23  26
BRANCH  22  28
ATOM     28  O5  UNL     1     -27.313  43.202   5.599  0.00  0.00    +0.000 OA
ATOM     29  C21 UNL     1     -26.734  43.048   4.308  0.00  0.00    +0.000 C 
ENDBRANCH  22  28
ENDBRANCH  19  20
ENDBRANCH  16  18
ENDBRANCH   1  16
TORSDOF 10
ENDMDL
