MODEL 1
REMARK VINA RESULT:      -5.4      0.000      0.000
REMARK  Name = .\curcumin.pdb
REMARK  12 active torsions:
REMARK  status: ('A' for Active; 'I' for Inactive)
REMARK    1  A    between atoms: C1_1  and  O1_2
REMARK    2  A    between atoms: O1_2  and  C2_3
REMARK    3  A    between atoms: C4_5  and  O6_27
REMARK    4  A    between atoms: C7_8  and  C8_9
REMARK    5  A    between atoms: C9_10  and  C10_11
REMARK    6  A    between atoms: C10_11  and  C11_13
REMARK    7  A    between atoms: C11_13  and  C12_14
REMARK    8  A    between atoms: C12_14  and  C13_16
REMARK    9  A    between atoms: C14_17  and  C15_18
REMARK   10  A    between atoms: C17_20  and  O5_25
REMARK   11  A    between atoms: C18_21  and  O4_24
REMARK   12  A    between atoms: O5_25  and  C21_26
REMARK                            x       y       z     vdW  Elec       q    Type
REMARK                         _______ _______ _______ _____ _____    ______ ____
ROOT
ATOM      1  C11 UNL     1       4.831  60.256  61.099  0.00  0.00    +0.000 C 
ENDROOT
BRANCH   1   2
ATOM      2  C10 UNL     1       6.226  60.690  61.453  0.00  0.00    +0.000 C 
ATOM      3  O2  UNL     1       6.628  60.567  62.641  0.00  0.00    +0.000 OA
BRANCH   2   5
ATOM      4  C8  UNL     1       6.658  61.739  59.263  0.00  0.00    +0.000 C 
ATOM      5  C9  UNL     1       7.122  61.217  60.405  0.00  0.00    +0.000 C 
BRANCH   4  11
ATOM      6  C2  UNL     1       8.032  61.533  57.138  0.00  0.00    +0.000 A 
ATOM      7  C3  UNL     1       8.883  62.138  56.190  0.00  0.00    +0.000 A 
ATOM      8  C4  UNL     1       9.220  63.493  56.297  0.00  0.00    +0.000 A 
ATOM      9  C5  UNL     1       8.706  64.255  57.347  0.00  0.00    +0.000 A 
ATOM     10  C6  UNL     1       7.870  63.668  58.297  0.00  0.00    +0.000 A 
ATOM     11  C7  UNL     1       7.545  62.304  58.220  0.00  0.00    +0.000 A 
BRANCH   6  13
ATOM     12  C1  UNL     1       6.762  59.693  56.003  0.00  0.00    +0.000 C 
ATOM     13  O1  UNL     1       7.633  60.191  57.013  0.00  0.00    +0.000 OA
ENDBRANCH   6  13
BRANCH   8  14
ATOM     14  O6  UNL     1      10.058  64.092  55.360  0.00  0.00    +0.000 OA
ATOM     15  H20 UNL     1      10.983  63.727  55.163  0.00  0.00    +0.000 HD
ENDBRANCH   8  14
ENDBRANCH   4  11
ENDBRANCH   2   5
ENDBRANCH   1   2
BRANCH   1  16
ATOM     16  C12 UNL     1       4.728  58.763  60.885  0.00  0.00    +0.000 C 
ATOM     17  O3  UNL     1       5.747  58.034  61.027  0.00  0.00    +0.000 OA
BRANCH  16  18
ATOM     18  C13 UNL     1       3.455  58.112  60.509  0.00  0.00    +0.000 C 
ATOM     19  C14 UNL     1       2.251  58.669  60.715  0.00  0.00    +0.000 C 
BRANCH  19  20
ATOM     20  C15 UNL     1       0.973  58.024  60.327  0.00  0.00    +0.000 A 
ATOM     21  C16 UNL     1       0.814  56.623  60.287  0.00  0.00    +0.000 A 
ATOM     22  C17 UNL     1      -0.421  56.051  59.923  0.00  0.00    +0.000 A 
ATOM     23  C18 UNL     1      -1.501  56.887  59.611  0.00  0.00    +0.000 A 
ATOM     24  C19 UNL     1      -1.353  58.277  59.668  0.00  0.00    +0.000 A 
ATOM     25  C20 UNL     1      -0.128  58.841  60.030  0.00  0.00    +0.000 A 
BRANCH  23  26
ATOM     26  O4  UNL     1      -2.724  56.326  59.249  0.00  0.00    +0.000 OA
ATOM     27  H16 UNL     1      -3.488  56.242  59.912  0.00  0.00    +0.000 HD
ENDBRANCH  23  26
BRANCH  22  28
ATOM     28  O5  UNL     1      -0.614  54.661  59.864  0.00  0.00    +0.000 OA
ATOM     29  C21 UNL     1      -0.318  53.852  58.730  0.00  0.00    +0.000 C 
ENDBRANCH  22  28
ENDBRANCH  19  20
ENDBRANCH  16  18
ENDBRANCH   1  16
TORSDOF 10
ENDMDL
MODEL 2
REMARK VINA RESULT:      -5.3      1.963      3.008
REMARK  Name = .\curcumin.pdb
REMARK  12 active torsions:
REMARK  status: ('A' for Active; 'I' for Inactive)
REMARK    1  A    between atoms: C1_1  and  O1_2
REMARK    2  A    between atoms: O1_2  and  C2_3
REMARK    3  A    between atoms: C4_5  and  O6_27
REMARK    4  A    between atoms: C7_8  and  C8_9
REMARK    5  A    between atoms: C9_10  and  C10_11
REMARK    6  A    between atoms: C10_11  and  C11_13
REMARK    7  A    between atoms: C11_13  and  C12_14
REMARK    8  A    between atoms: C12_14  and  C13_16
REMARK    9  A    between atoms: C14_17  and  C15_18
REMARK   10  A    between atoms: C17_20  and  O5_25
REMARK   11  A    between atoms: C18_21  and  O4_24
REMARK   12  A    between atoms: O5_25  and  C21_26
REMARK                            x       y       z     vdW  Elec       q    Type
REMARK                         _______ _______ _______ _____ _____    ______ ____
ROOT
ATOM      1  C11 UNL     1       6.050  55.793  59.230  0.00  0.00    +0.000 C 
ENDROOT
BRANCH   1   2
ATOM      2  C10 UNL     1       6.200  56.582  57.959  0.00  0.00    +0.000 C 
ATOM      3  O2  UNL     1       5.858  56.059  56.864  0.00  0.00    +0.000 OA
BRANCH   2   5
ATOM      4  C8  UNL     1       6.111  58.969  57.347  0.00  0.00    +0.000 C 
ATOM      5  C9  UNL     1       6.706  57.968  58.007  0.00  0.00    +0.000 C 
BRANCH   4  11
ATOM      6  C2  UNL     1       5.945  61.352  58.208  0.00  0.00    +0.000 A 
ATOM      7  C3  UNL     1       6.450  62.669  58.214  0.00  0.00    +0.000 A 
ATOM      8  C4  UNL     1       7.592  62.997  57.473  0.00  0.00    +0.000 A 
ATOM      9  C5  UNL     1       8.241  62.014  56.725  0.00  0.00    +0.000 A 
ATOM     10  C6  UNL     1       7.747  60.710  56.702  0.00  0.00    +0.000 A 
ATOM     11  C7  UNL     1       6.588  60.369  57.417  0.00  0.00    +0.000 A 
BRANCH   6  13
ATOM     12  C1  UNL     1       4.878  60.754  60.396  0.00  0.00    +0.000 C 
ATOM     13  O1  UNL     1       4.838  60.989  58.992  0.00  0.00    +0.000 OA
ENDBRANCH   6  13
BRANCH   8  14
ATOM     14  O6  UNL     1       8.094  64.297  57.481  0.00  0.00    +0.000 OA
ATOM     15  H20 UNL     1       8.727  64.617  58.204  0.00  0.00    +0.000 HD
ENDBRANCH   8  14
ENDBRANCH   4  11
ENDBRANCH   2   5
ENDBRANCH   1   2
BRANCH   1  16
ATOM     16  C12 UNL     1       5.256  56.536  60.280  0.00  0.00    +0.000 C 
ATOM     17  O3  UNL     1       5.853  57.157  61.199  0.00  0.00    +0.000 OA
BRANCH  16  18
ATOM     18  C13 UNL     1       3.777  56.562  60.270  0.00  0.00    +0.000 C 
ATOM     19  C14 UNL     1       3.060  57.606  59.828  0.00  0.00    +0.000 C 
BRANCH  19  20
ATOM     20  C15 UNL     1       1.576  57.630  59.806  0.00  0.00    +0.000 A 
ATOM     21  C16 UNL     1       0.800  56.454  59.861  0.00  0.00    +0.000 A 
ATOM     22  C17 UNL     1      -0.607  56.522  59.849  0.00  0.00    +0.000 A 
ATOM     23  C18 UNL     1      -1.235  57.773  59.793  0.00  0.00    +0.000 A 
ATOM     24  C19 UNL     1      -0.468  58.943  59.756  0.00  0.00    +0.000 A 
ATOM     25  C20 UNL     1       0.926  58.872  59.769  0.00  0.00    +0.000 A 
BRANCH  23  26
ATOM     26  O4  UNL     1      -2.627  57.845  59.778  0.00  0.00    +0.000 OA
ATOM     27  H16 UNL     1      -3.129  58.263  59.001  0.00  0.00    +0.000 HD
ENDBRANCH  23  26
BRANCH  22  28
ATOM     28  O5  UNL     1      -1.413  55.372  59.895  0.00  0.00    +0.000 OA
ATOM     29  C21 UNL     1      -1.105  54.144  59.245  0.00  0.00    +0.000 C 
ENDBRANCH  22  28
ENDBRANCH  19  20
ENDBRANCH  16  18
ENDBRANCH   1  16
TORSDOF 10
ENDMDL
MODEL 3
REMARK VINA RESULT:      -5.3      2.148      4.733
REMARK  Name = .\curcumin.pdb
REMARK  12 active torsions:
REMARK  status: ('A' for Active; 'I' for Inactive)
REMARK    1  A    between atoms: C1_1  and  O1_2
REMARK    2  A    between atoms: O1_2  and  C2_3
REMARK    3  A    between atoms: C4_5  and  O6_27
REMARK    4  A    between atoms: C7_8  and  C8_9
REMARK    5  A    between atoms: C9_10  and  C10_11
REMARK    6  A    between atoms: C10_11  and  C11_13
REMARK    7  A    between atoms: C11_13  and  C12_14
REMARK    8  A    between atoms: C12_14  and  C13_16
REMARK    9  A    between atoms: C14_17  and  C15_18
REMARK   10  A    between atoms: C17_20  and  O5_25
REMARK   11  A    between atoms: C18_21  and  O4_24
REMARK   12  A    between atoms: O5_25  and  C21_26
REMARK                            x       y       z     vdW  Elec       q    Type
REMARK                         _______ _______ _______ _____ _____    ______ ____
ROOT
ATOM      1  C11 UNL     1       4.963  58.701  54.802  0.00  0.00    +0.000 C 
ENDROOT
BRANCH   1   2
ATOM      2  C10 UNL     1       6.055  59.382  55.579  0.00  0.00    +0.000 C 
ATOM      3  O2  UNL     1       7.167  59.594  55.024  0.00  0.00    +0.000 OA
BRANCH   2   5
ATOM      4  C8  UNL     1       6.403  59.263  58.017  0.00  0.00    +0.000 C 
ATOM      5  C9  UNL     1       5.805  59.831  56.963  0.00  0.00    +0.000 C 
BRANCH   4  11
ATOM      6  C2  UNL     1       7.149  60.495  60.107  0.00  0.00    +0.000 A 
ATOM      7  C3  UNL     1       6.880  60.892  61.433  0.00  0.00    +0.000 A 
ATOM      8  C4  UNL     1       5.663  60.559  62.043  0.00  0.00    +0.000 A 
ATOM      9  C5  UNL     1       4.706  59.833  61.332  0.00  0.00    +0.000 A 
ATOM     10  C6  UNL     1       4.964  59.426  60.023  0.00  0.00    +0.000 A 
ATOM     11  C7  UNL     1       6.189  59.728  59.407  0.00  0.00    +0.000 A 
BRANCH   6  13
ATOM     12  C1  UNL     1       8.528  62.097  58.758  0.00  0.00    +0.000 C 
ATOM     13  O1  UNL     1       8.338  60.872  59.458  0.00  0.00    +0.000 OA
ENDBRANCH   6  13
BRANCH   8  14
ATOM     14  O6  UNL     1       5.394  60.953  63.352  0.00  0.00    +0.000 OA
ATOM     15  H20 UNL     1       4.860  61.790  63.555  0.00  0.00    +0.000 HD
ENDBRANCH   8  14
ENDBRANCH   4  11
ENDBRANCH   2   5
ENDBRANCH   1   2
BRANCH   1  16
ATOM     16  C12 UNL     1       4.372  57.525  55.546  0.00  0.00    +0.000 C 
ATOM     17  O3  UNL     1       5.014  56.444  55.628  0.00  0.00    +0.000 OA
BRANCH  16  18
ATOM     18  C13 UNL     1       3.044  57.596  56.194  0.00  0.00    +0.000 C 
ATOM     19  C14 UNL     1       2.874  57.693  57.522  0.00  0.00    +0.000 C 
BRANCH  19  20
ATOM     20  C15 UNL     1       1.544  57.776  58.173  0.00  0.00    +0.000 A 
ATOM     21  C16 UNL     1       0.518  56.841  57.921  0.00  0.00    +0.000 A 
ATOM     22  C17 UNL     1      -0.728  56.951  58.569  0.00  0.00    +0.000 A 
ATOM     23  C18 UNL     1      -0.940  57.995  59.480  0.00  0.00    +0.000 A 
ATOM     24  C19 UNL     1       0.082  58.913  59.746  0.00  0.00    +0.000 A 
ATOM     25  C20 UNL     1       1.316  58.801  59.103  0.00  0.00    +0.000 A 
BRANCH  23  26
ATOM     26  O4  UNL     1      -2.171  58.109  60.123  0.00  0.00    +0.000 OA
ATOM     27  H16 UNL     1      -2.329  58.797  60.852  0.00  0.00    +0.000 HD
ENDBRANCH  23  26
BRANCH  22  28
ATOM     28  O5  UNL     1      -1.775  56.044  58.339  0.00  0.00    +0.000 OA
ATOM     29  C21 UNL     1      -2.698  56.135  57.259  0.00  0.00    +0.000 C 
ENDBRANCH  22  28
ENDBRANCH  19  20
ENDBRANCH  16  18
ENDBRANCH   1  16
TORSDOF 10
ENDMDL
MODEL 4
REMARK VINA RESULT:      -5.3      3.006      4.787
REMARK  Name = .\curcumin.pdb
REMARK  12 active torsions:
REMARK  status: ('A' for Active; 'I' for Inactive)
REMARK    1  A    between atoms: C1_1  and  O1_2
REMARK    2  A    between atoms: O1_2  and  C2_3
REMARK    3  A    between atoms: C4_5  and  O6_27
REMARK    4  A    between atoms: C7_8  and  C8_9
REMARK    5  A    between atoms: C9_10  and  C10_11
REMARK    6  A    between atoms: C10_11  and  C11_13
REMARK    7  A    between atoms: C11_13  and  C12_14
REMARK    8  A    between atoms: C12_14  and  C13_16
REMARK    9  A    between atoms: C14_17  and  C15_18
REMARK   10  A    between atoms: C17_20  and  O5_25
REMARK   11  A    between atoms: C18_21  and  O4_24
REMARK   12  A    between atoms: O5_25  and  C21_26
REMARK                            x       y       z     vdW  Elec       q    Type
REMARK                         _______ _______ _______ _____ _____    ______ ____
ROOT
ATOM      1  C11 UNL     1       1.192  57.437  59.980  0.00  0.00    +0.000 C 
ENDROOT
BRANCH   1   2
ATOM      2  C10 UNL     1       2.176  58.077  60.920  0.00  0.00    +0.000 C 
ATOM      3  O2  UNL     1       2.019  57.943  62.163  0.00  0.00    +0.000 OA
BRANCH   2   5
ATOM      4  C8  UNL     1       3.511  59.014  59.069  0.00  0.00    +0.000 C 
ATOM      5  C9  UNL     1       3.334  58.819  60.382  0.00  0.00    +0.000 C 
BRANCH   4  11
ATOM      6  C2  UNL     1       5.406  59.340  57.412  0.00  0.00    +0.000 A 
ATOM      7  C3  UNL     1       6.483  60.126  56.953  0.00  0.00    +0.000 A 
ATOM      8  C4  UNL     1       6.784  61.349  57.564  0.00  0.00    +0.000 A 
ATOM      9  C5  UNL     1       6.008  61.801  58.633  0.00  0.00    +0.000 A 
ATOM     10  C6  UNL     1       4.946  61.029  59.104  0.00  0.00    +0.000 A 
ATOM     11  C7  UNL     1       4.648  59.787  58.521  0.00  0.00    +0.000 A 
BRANCH   6  13
ATOM     12  C1  UNL     1       5.673  56.880  57.008  0.00  0.00    +0.000 C 
ATOM     13  O1  UNL     1       5.051  58.140  56.774  0.00  0.00    +0.000 OA
ENDBRANCH   6  13
BRANCH   8  14
ATOM     14  O6  UNL     1       7.846  62.128  57.109  0.00  0.00    +0.000 OA
ATOM     15  H20 UNL     1       7.702  62.901  56.470  0.00  0.00    +0.000 HD
ENDBRANCH   8  14
ENDBRANCH   4  11
ENDBRANCH   2   5
ENDBRANCH   1   2
BRANCH   1  16
ATOM     16  C12 UNL     1      -0.067  58.257  59.816  0.00  0.00    +0.000 C 
ATOM     17  O3  UNL     1      -0.004  59.516  59.817  0.00  0.00    +0.000 OA
BRANCH  16  18
ATOM     18  C13 UNL     1      -1.395  57.628  59.653  0.00  0.00    +0.000 C 
ATOM     19  C14 UNL     1      -1.699  56.797  58.643  0.00  0.00    +0.000 C 
BRANCH  19  20
ATOM     20  C15 UNL     1      -3.027  56.155  58.483  0.00  0.00    +0.000 A 
ATOM     21  C16 UNL     1      -4.113  56.807  57.863  0.00  0.00    +0.000 A 
ATOM     22  C17 UNL     1      -5.355  56.156  57.722  0.00  0.00    +0.000 A 
ATOM     23  C18 UNL     1      -5.502  54.845  58.194  0.00  0.00    +0.000 A 
ATOM     24  C19 UNL     1      -4.422  54.189  58.794  0.00  0.00    +0.000 A 
ATOM     25  C20 UNL     1      -3.192  54.836  58.931  0.00  0.00    +0.000 A 
BRANCH  23  26
ATOM     26  O4  UNL     1      -6.729  54.198  58.059  0.00  0.00    +0.000 OA
ATOM     27  H16 UNL     1      -7.592  54.622  58.383  0.00  0.00    +0.000 HD
ENDBRANCH  23  26
BRANCH  22  28
ATOM     28  O5  UNL     1      -6.460  56.775  57.116  0.00  0.00    +0.000 OA
ATOM     29  C21 UNL     1      -6.696  56.813  55.712  0.00  0.00    +0.000 C 
ENDBRANCH  22  28
ENDBRANCH  19  20
ENDBRANCH  16  18
ENDBRANCH   1  16
TORSDOF 10
ENDMDL
MODEL 5
REMARK VINA RESULT:      -5.2      2.902      4.929
REMARK  Name = .\curcumin.pdb
REMARK  12 active torsions:
REMARK  status: ('A' for Active; 'I' for Inactive)
REMARK    1  A    between atoms: C1_1  and  O1_2
REMARK    2  A    between atoms: O1_2  and  C2_3
REMARK    3  A    between atoms: C4_5  and  O6_27
REMARK    4  A    between atoms: C7_8  and  C8_9
REMARK    5  A    between atoms: C9_10  and  C10_11
REMARK    6  A    between atoms: C10_11  and  C11_13
REMARK    7  A    between atoms: C11_13  and  C12_14
REMARK    8  A    between atoms: C12_14  and  C13_16
REMARK    9  A    between atoms: C14_17  and  C15_18
REMARK   10  A    between atoms: C17_20  and  O5_25
REMARK   11  A    between atoms: C18_21  and  O4_24
REMARK   12  A    between atoms: O5_25  and  C21_26
REMARK                            x       y       z     vdW  Elec       q    Type
REMARK                         _______ _______ _______ _____ _____    ______ ____
ROOT
ATOM      1  C11 UNL     1       1.379  57.563  59.798  0.00  0.00    +0.000 C 
ENDROOT
BRANCH   1   2
ATOM      2  C10 UNL     1       2.221  58.096  60.923  0.00  0.00    +0.000 C 
ATOM      3  O2  UNL     1       2.122  57.577  62.068  0.00  0.00    +0.000 OA
BRANCH   2   5
ATOM      4  C8  UNL     1       4.396  58.972  60.157  0.00  0.00    +0.000 C 
ATOM      5  C9  UNL     1       3.179  59.191  60.673  0.00  0.00    +0.000 C 
BRANCH   4  11
ATOM      6  C2  UNL     1       6.589  60.190  60.542  0.00  0.00    +0.000 A 
ATOM      7  C3  UNL     1       7.443  61.265  60.220  0.00  0.00    +0.000 A 
ATOM      8  C4  UNL     1       7.089  62.182  59.223  0.00  0.00    +0.000 A 
ATOM      9  C5  UNL     1       5.883  62.031  58.537  0.00  0.00    +0.000 A 
ATOM     10  C6  UNL     1       5.024  60.977  58.852  0.00  0.00    +0.000 A 
ATOM     11  C7  UNL     1       5.352  60.065  59.868  0.00  0.00    +0.000 A 
BRANCH   6  13
ATOM     12  C1  UNL     1       8.176  58.492  61.483  0.00  0.00    +0.000 C 
ATOM     13  O1  UNL     1       6.955  59.225  61.496  0.00  0.00    +0.000 OA
ENDBRANCH   6  13
BRANCH   8  14
ATOM     14  O6  UNL     1       7.933  63.243  58.902  0.00  0.00    +0.000 OA
ATOM     15  H20 UNL     1       8.399  63.297  58.004  0.00  0.00    +0.000 HD
ENDBRANCH   8  14
ENDBRANCH   4  11
ENDBRANCH   2   5
ENDBRANCH   1   2
BRANCH   1  16
ATOM     16  C12 UNL     1       0.052  58.278  59.680  0.00  0.00    +0.000 C 
ATOM     17  O3  UNL     1       0.016  59.537  59.639  0.00  0.00    +0.000 OA
BRANCH  16  18
ATOM     18  C13 UNL     1      -1.229  57.543  59.610  0.00  0.00    +0.000 C 
ATOM     19  C14 UNL     1      -1.693  56.973  58.487  0.00  0.00    +0.000 C 
BRANCH  19  20
ATOM     20  C15 UNL     1      -2.972  56.225  58.416  0.00  0.00    +0.000 A 
ATOM     21  C16 UNL     1      -4.138  56.771  57.840  0.00  0.00    +0.000 A 
ATOM     22  C17 UNL     1      -5.330  56.022  57.784  0.00  0.00    +0.000 A 
ATOM     23  C18 UNL     1      -5.348  54.718  58.297  0.00  0.00    +0.000 A 
ATOM     24  C19 UNL     1      -4.188  54.167  58.853  0.00  0.00    +0.000 A 
ATOM     25  C20 UNL     1      -3.009  54.911  58.907  0.00  0.00    +0.000 A 
BRANCH  23  26
ATOM     26  O4  UNL     1      -6.525  53.974  58.246  0.00  0.00    +0.000 OA
ATOM     27  H16 UNL     1      -7.400  54.339  58.607  0.00  0.00    +0.000 HD
ENDBRANCH  23  26
BRANCH  22  28
ATOM     28  O5  UNL     1      -6.511  56.535  57.224  0.00  0.00    +0.000 OA
ATOM     29  C21 UNL     1      -6.729  56.719  55.829  0.00  0.00    +0.000 C 
ENDBRANCH  22  28
ENDBRANCH  19  20
ENDBRANCH  16  18
ENDBRANCH   1  16
TORSDOF 10
ENDMDL
MODEL 6
REMARK VINA RESULT:      -5.1      2.767      5.106
REMARK  Name = .\curcumin.pdb
REMARK  12 active torsions:
REMARK  status: ('A' for Active; 'I' for Inactive)
REMARK    1  A    between atoms: C1_1  and  O1_2
REMARK    2  A    between atoms: O1_2  and  C2_3
REMARK    3  A    between atoms: C4_5  and  O6_27
REMARK    4  A    between atoms: C7_8  and  C8_9
REMARK    5  A    between atoms: C9_10  and  C10_11
REMARK    6  A    between atoms: C10_11  and  C11_13
REMARK    7  A    between atoms: C11_13  and  C12_14
REMARK    8  A    between atoms: C12_14  and  C13_16
REMARK    9  A    between atoms: C14_17  and  C15_18
REMARK   10  A    between atoms: C17_20  and  O5_25
REMARK   11  A    between atoms: C18_21  and  O4_24
REMARK   12  A    between atoms: O5_25  and  C21_26
REMARK                            x       y       z     vdW  Elec       q    Type
REMARK                         _______ _______ _______ _____ _____    ______ ____
ROOT
ATOM      1  C11 UNL     1       1.091  58.142  60.317  0.00  0.00    +0.000 C 
ENDROOT
BRANCH   1   2
ATOM      2  C10 UNL     1       2.185  57.994  59.297  0.00  0.00    +0.000 C 
ATOM      3  O2  UNL     1       1.935  57.421  58.203  0.00  0.00    +0.000 OA
BRANCH   2   5
ATOM      4  C8  UNL     1       3.699  59.760  60.117  0.00  0.00    +0.000 C 
ATOM      5  C9  UNL     1       3.525  58.551  59.567  0.00  0.00    +0.000 C 
BRANCH   4  11
ATOM      6  C2  UNL     1       5.870  60.884  59.434  0.00  0.00    +0.000 A 
ATOM      7  C3  UNL     1       7.137  61.381  59.801  0.00  0.00    +0.000 A 
ATOM      8  C4  UNL     1       7.557  61.343  61.137  0.00  0.00    +0.000 A 
ATOM      9  C5  UNL     1       6.714  60.813  62.115  0.00  0.00    +0.000 A 
ATOM     10  C6  UNL     1       5.462  60.309  61.764  0.00  0.00    +0.000 A 
ATOM     11  C7  UNL     1       5.037  60.314  60.426  0.00  0.00    +0.000 A 
BRANCH   6  13
ATOM     12  C1  UNL     1       5.909  60.200  57.022  0.00  0.00    +0.000 C 
ATOM     13  O1  UNL     1       5.407  60.969  58.110  0.00  0.00    +0.000 OA
ENDBRANCH   6  13
BRANCH   8  14
ATOM     14  O6  UNL     1       8.808  61.837  61.503  0.00  0.00    +0.000 OA
ATOM     15  H20 UNL     1       8.993  62.171  62.441  0.00  0.00    +0.000 HD
ENDBRANCH   8  14
ENDBRANCH   4  11
ENDBRANCH   2   5
ENDBRANCH   1   2
BRANCH   1  16
ATOM     16  C12 UNL     1      -0.185  58.689  59.720  0.00  0.00    +0.000 C 
ATOM     17  O3  UNL     1      -0.224  59.874  59.293  0.00  0.00    +0.000 OA
BRANCH  16  18
ATOM     18  C13 UNL     1      -1.413  57.872  59.615  0.00  0.00    +0.000 C 
ATOM     19  C14 UNL     1      -1.584  56.909  58.695  0.00  0.00    +0.000 C 
BRANCH  19  20
ATOM     20  C15 UNL     1      -2.810  56.080  58.595  0.00  0.00    +0.000 A 
ATOM     21  C16 UNL     1      -4.034  56.593  58.120  0.00  0.00    +0.000 A 
ATOM     22  C17 UNL     1      -5.172  55.768  58.031  0.00  0.00    +0.000 A 
ATOM     23  C18 UNL     1      -5.078  54.422  58.410  0.00  0.00    +0.000 A 
ATOM     24  C19 UNL     1      -3.860  53.905  58.865  0.00  0.00    +0.000 A 
ATOM     25  C20 UNL     1      -2.733  54.725  58.951  0.00  0.00    +0.000 A 
BRANCH  23  26
ATOM     26  O4  UNL     1      -6.202  53.602  58.326  0.00  0.00    +0.000 OA
ATOM     27  H16 UNL     1      -7.112  53.914  58.647  0.00  0.00    +0.000 HD
ENDBRANCH  23  26
BRANCH  22  28
ATOM     28  O5  UNL     1      -6.410  56.245  57.569  0.00  0.00    +0.000 OA
ATOM     29  C21 UNL     1      -6.617  56.853  56.298  0.00  0.00    +0.000 C 
ENDBRANCH  22  28
ENDBRANCH  19  20
ENDBRANCH  16  18
ENDBRANCH   1  16
TORSDOF 10
ENDMDL
MODEL 7
REMARK VINA RESULT:      -5.1      2.484     10.462
REMARK  Name = .\curcumin.pdb
REMARK  12 active torsions:
REMARK  status: ('A' for Active; 'I' for Inactive)
REMARK    1  A    between atoms: C1_1  and  O1_2
REMARK    2  A    between atoms: O1_2  and  C2_3
REMARK    3  A    between atoms: C4_5  and  O6_27
REMARK    4  A    between atoms: C7_8  and  C8_9
REMARK    5  A    between atoms: C9_10  and  C10_11
REMARK    6  A    between atoms: C10_11  and  C11_13
REMARK    7  A    between atoms: C11_13  and  C12_14
REMARK    8  A    between atoms: C12_14  and  C13_16
REMARK    9  A    between atoms: C14_17  and  C15_18
REMARK   10  A    between atoms: C17_20  and  O5_25
REMARK   11  A    between atoms: C18_21  and  O4_24
REMARK   12  A    between atoms: O5_25  and  C21_26
REMARK                            x       y       z     vdW  Elec       q    Type
REMARK                         _______ _______ _______ _____ _____    ______ ____
ROOT
ATOM      1  C11 UNL     1       0.882  58.762  60.123  0.00  0.00    +0.000 C 
ENDROOT
BRANCH   1   2
ATOM      2  C10 UNL     1       0.883  58.015  58.819  0.00  0.00    +0.000 C 
ATOM      3  O2  UNL     1       1.911  58.048  58.090  0.00  0.00    +0.000 OA
BRANCH   2   5
ATOM      4  C8  UNL     1      -1.367  57.087  59.216  0.00  0.00    +0.000 C 
ATOM      5  C9  UNL     1      -0.296  57.220  58.423  0.00  0.00    +0.000 C 
BRANCH   4  11
ATOM      6  C2  UNL     1      -2.716  54.940  59.081  0.00  0.00    +0.000 A 
ATOM      7  C3  UNL     1      -3.887  54.277  58.658  0.00  0.00    +0.000 A 
ATOM      8  C4  UNL     1      -4.909  54.981  58.009  0.00  0.00    +0.000 A 
ATOM      9  C5  UNL     1      -4.773  56.352  57.783  0.00  0.00    +0.000 A 
ATOM     10  C6  UNL     1      -3.617  57.019  58.188  0.00  0.00    +0.000 A 
ATOM     11  C7  UNL     1      -2.570  56.323  58.815  0.00  0.00    +0.000 A 
BRANCH   6  13
ATOM     12  C1  UNL     1      -0.738  53.405  59.196  0.00  0.00    +0.000 C 
ATOM     13  O1  UNL     1      -1.707  54.264  59.788  0.00  0.00    +0.000 OA
ENDBRANCH   6  13
BRANCH   8  14
ATOM     14  O6  UNL     1      -6.067  54.329  57.593  0.00  0.00    +0.000 OA
ATOM     15  H20 UNL     1      -6.952  54.464  58.068  0.00  0.00    +0.000 HD
ENDBRANCH   8  14
ENDBRANCH   4  11
ENDBRANCH   2   5
ENDBRANCH   1   2
BRANCH   1  16
ATOM     16  C12 UNL     1       1.980  58.300  61.054  0.00  0.00    +0.000 C 
ATOM     17  O3  UNL     1       1.842  57.234  61.712  0.00  0.00    +0.000 OA
BRANCH  16  18
ATOM     18  C13 UNL     1       3.234  59.065  61.225  0.00  0.00    +0.000 C 
ATOM     19  C14 UNL     1       3.981  59.500  60.198  0.00  0.00    +0.000 C 
BRANCH  19  20
ATOM     20  C15 UNL     1       5.233  60.278  60.368  0.00  0.00    +0.000 A 
ATOM     21  C16 UNL     1       5.925  60.340  61.595  0.00  0.00    +0.000 A 
ATOM     22  C17 UNL     1       7.117  61.083  61.710  0.00  0.00    +0.000 A 
ATOM     23  C18 UNL     1       7.620  61.754  60.587  0.00  0.00    +0.000 A 
ATOM     24  C19 UNL     1       6.945  61.680  59.364  0.00  0.00    +0.000 A 
ATOM     25  C20 UNL     1       5.765  60.943  59.253  0.00  0.00    +0.000 A 
BRANCH  23  26
ATOM     26  O4  UNL     1       8.797  62.492  60.697  0.00  0.00    +0.000 OA
ATOM     27  H16 UNL     1       9.191  62.984  59.902  0.00  0.00    +0.000 HD
ENDBRANCH  23  26
BRANCH  22  28
ATOM     28  O5  UNL     1       7.829  61.173  62.916  0.00  0.00    +0.000 OA
ATOM     29  C21 UNL     1       7.500  62.056  63.984  0.00  0.00    +0.000 C 
ENDBRANCH  22  28
ENDBRANCH  19  20
ENDBRANCH  16  18
ENDBRANCH   1  16
TORSDOF 10
ENDMDL
MODEL 8
REMARK VINA RESULT:      -5.1      1.447      9.445
REMARK  Name = .\curcumin.pdb
REMARK  12 active torsions:
REMARK  status: ('A' for Active; 'I' for Inactive)
REMARK    1  A    between atoms: C1_1  and  O1_2
REMARK    2  A    between atoms: O1_2  and  C2_3
REMARK    3  A    between atoms: C4_5  and  O6_27
REMARK    4  A    between atoms: C7_8  and  C8_9
REMARK    5  A    between atoms: C9_10  and  C10_11
REMARK    6  A    between atoms: C10_11  and  C11_13
REMARK    7  A    between atoms: C11_13  and  C12_14
REMARK    8  A    between atoms: C12_14  and  C13_16
REMARK    9  A    between atoms: C14_17  and  C15_18
REMARK   10  A    between atoms: C17_20  and  O5_25
REMARK   11  A    between atoms: C18_21  and  O4_24
REMARK   12  A    between atoms: O5_25  and  C21_26
REMARK                            x       y       z     vdW  Elec       q    Type
REMARK                         _______ _______ _______ _____ _____    ______ ____
ROOT
ATOM      1  C11 UNL     1       4.381  60.241  60.742  0.00  0.00    +0.000 C 
ENDROOT
BRANCH   1   2
ATOM      2  C10 UNL     1       4.137  58.758  60.766  0.00  0.00    +0.000 C 
ATOM      3  O2  UNL     1       5.097  57.978  61.007  0.00  0.00    +0.000 OA
BRANCH   2   5
ATOM      4  C8  UNL     1       1.987  58.671  59.560  0.00  0.00    +0.000 C 
ATOM      5  C9  UNL     1       2.775  58.231  60.549  0.00  0.00    +0.000 C 
BRANCH   4  11
ATOM      6  C2  UNL     1       0.404  57.030  58.444  0.00  0.00    +0.000 A 
ATOM      7  C3  UNL     1      -0.915  56.573  58.247  0.00  0.00    +0.000 A 
ATOM      8  C4  UNL     1      -1.985  57.173  58.922  0.00  0.00    +0.000 A 
ATOM      9  C5  UNL     1      -1.746  58.228  59.803  0.00  0.00    +0.000 A 
ATOM     10  C6  UNL     1      -0.447  58.697  60.001  0.00  0.00    +0.000 A 
ATOM     11  C7  UNL     1       0.634  58.125  59.311  0.00  0.00    +0.000 A 
BRANCH   6  13
ATOM     12  C1  UNL     1       1.850  56.554  56.452  0.00  0.00    +0.000 C 
ATOM     13  O1  UNL     1       1.497  56.402  57.823  0.00  0.00    +0.000 OA
ENDBRANCH   6  13
BRANCH   8  14
ATOM     14  O6  UNL     1      -3.289  56.720  58.730  0.00  0.00    +0.000 OA
ATOM     15  H20 UNL     1      -4.078  57.169  59.179  0.00  0.00    +0.000 HD
ENDBRANCH   8  14
ENDBRANCH   4  11
ENDBRANCH   2   5
ENDBRANCH   1   2
BRANCH   1  16
ATOM     16  C12 UNL     1       5.793  60.600  61.144  0.00  0.00    +0.000 C 
ATOM     17  O3  UNL     1       6.149  60.503  62.349  0.00  0.00    +0.000 OA
BRANCH  16  18
ATOM     18  C13 UNL     1       6.791  61.071  60.160  0.00  0.00    +0.000 C 
ATOM     19  C14 UNL     1       6.465  61.694  59.017  0.00  0.00    +0.000 C 
BRANCH  19  20
ATOM     20  C15 UNL     1       7.465  62.178  58.034  0.00  0.00    +0.000 A 
ATOM     21  C16 UNL     1       8.103  61.317  57.117  0.00  0.00    +0.000 A 
ATOM     22  C17 UNL     1       9.040  61.820  56.192  0.00  0.00    +0.000 A 
ATOM     23  C18 UNL     1       9.328  63.192  56.182  0.00  0.00    +0.000 A 
ATOM     24  C19 UNL     1       8.683  64.052  57.078  0.00  0.00    +0.000 A 
ATOM     25  C20 UNL     1       7.755  63.550  57.993  0.00  0.00    +0.000 A 
BRANCH  23  26
ATOM     26  O4  UNL     1      10.255  63.694  55.271  0.00  0.00    +0.000 OA
ATOM     27  H16 UNL     1      11.128  63.213  55.082  0.00  0.00    +0.000 HD
ENDBRANCH  23  26
BRANCH  22  28
ATOM     28  O5  UNL     1       9.699  60.993  55.269  0.00  0.00    +0.000 OA
ATOM     29  C21 UNL     1       9.043  60.135  54.342  0.00  0.00    +0.000 C 
ENDBRANCH  22  28
ENDBRANCH  19  20
ENDBRANCH  16  18
ENDBRANCH   1  16
TORSDOF 10
ENDMDL
MODEL 9
REMARK VINA RESULT:      -5.1      2.185     10.411
REMARK  Name = .\curcumin.pdb
REMARK  12 active torsions:
REMARK  status: ('A' for Active; 'I' for Inactive)
REMARK    1  A    between atoms: C1_1  and  O1_2
REMARK    2  A    between atoms: O1_2  and  C2_3
REMARK    3  A    between atoms: C4_5  and  O6_27
REMARK    4  A    between atoms: C7_8  and  C8_9
REMARK    5  A    between atoms: C9_10  and  C10_11
REMARK    6  A    between atoms: C10_11  and  C11_13
REMARK    7  A    between atoms: C11_13  and  C12_14
REMARK    8  A    between atoms: C12_14  and  C13_16
REMARK    9  A    between atoms: C14_17  and  C15_18
REMARK   10  A    between atoms: C17_20  and  O5_25
REMARK   11  A    between atoms: C18_21  and  O4_24
REMARK   12  A    between atoms: O5_25  and  C21_26
REMARK                            x       y       z     vdW  Elec       q    Type
REMARK                         _______ _______ _______ _____ _____    ______ ____
ROOT
ATOM      1  C11 UNL     1       1.492  58.840  60.044  0.00  0.00    +0.000 C 
ENDROOT
BRANCH   1   2
ATOM      2  C10 UNL     1       1.488  57.833  58.928  0.00  0.00    +0.000 C 
ATOM      3  O2  UNL     1       2.574  57.535  58.362  0.00  0.00    +0.000 OA
BRANCH   2   5
ATOM      4  C8  UNL     1      -0.765  56.950  59.405  0.00  0.00    +0.000 C 
ATOM      5  C9  UNL     1       0.227  57.174  58.534  0.00  0.00    +0.000 C 
BRANCH   4  11
ATOM      6  C2  UNL     1      -2.333  54.959  59.259  0.00  0.00    +0.000 A 
ATOM      7  C3  UNL     1      -3.573  54.429  58.847  0.00  0.00    +0.000 A 
ATOM      8  C4  UNL     1      -4.527  55.248  58.229  0.00  0.00    +0.000 A 
ATOM      9  C5  UNL     1      -4.253  56.601  58.024  0.00  0.00    +0.000 A 
ATOM     10  C6  UNL     1      -3.026  57.136  58.419  0.00  0.00    +0.000 A 
ATOM     11  C7  UNL     1      -2.048  56.323  59.014  0.00  0.00    +0.000 A 
BRANCH   6  13
ATOM     12  C1  UNL     1      -0.464  53.288  59.302  0.00  0.00    +0.000 C 
ATOM     13  O1  UNL     1      -1.388  54.168  59.935  0.00  0.00    +0.000 OA
ENDBRANCH   6  13
BRANCH   8  14
ATOM     14  O6  UNL     1      -5.754  54.727  57.824  0.00  0.00    +0.000 OA
ATOM     15  H20 UNL     1      -6.296  55.158  57.084  0.00  0.00    +0.000 HD
ENDBRANCH   8  14
ENDBRANCH   4  11
ENDBRANCH   2   5
ENDBRANCH   1   2
BRANCH   1  16
ATOM     16  C12 UNL     1       2.445  58.467  61.156  0.00  0.00    +0.000 C 
ATOM     17  O3  UNL     1       2.113  57.597  62.005  0.00  0.00    +0.000 OA
BRANCH  16  18
ATOM     18  C13 UNL     1       3.778  59.095  61.288  0.00  0.00    +0.000 C 
ATOM     19  C14 UNL     1       4.296  59.929  60.373  0.00  0.00    +0.000 C 
BRANCH  19  20
ATOM     20  C15 UNL     1       5.627  60.570  60.509  0.00  0.00    +0.000 A 
ATOM     21  C16 UNL     1       6.254  61.246  59.442  0.00  0.00    +0.000 A 
ATOM     22  C17 UNL     1       7.514  61.850  59.618  0.00  0.00    +0.000 A 
ATOM     23  C18 UNL     1       8.140  61.785  60.870  0.00  0.00    +0.000 A 
ATOM     24  C19 UNL     1       7.513  61.131  61.936  0.00  0.00    +0.000 A 
ATOM     25  C20 UNL     1       6.263  60.534  61.759  0.00  0.00    +0.000 A 
BRANCH  23  26
ATOM     26  O4  UNL     1       9.388  62.380  61.048  0.00  0.00    +0.000 OA
ATOM     27  H16 UNL     1       9.710  62.676  61.963  0.00  0.00    +0.000 HD
ENDBRANCH  23  26
BRANCH  22  28
ATOM     28  O5  UNL     1       8.173  62.526  58.577  0.00  0.00    +0.000 OA
ATOM     29  C21 UNL     1       7.943  63.886  58.225  0.00  0.00    +0.000 C 
ENDBRANCH  22  28
ENDBRANCH  19  20
ENDBRANCH  16  18
ENDBRANCH   1  16
TORSDOF 10
ENDMDL
