MODEL 1
REMARK VINA RESULT:      -4.0      0.000      0.000
REMARK  Name = .\curcumin.pdb
REMARK  12 active torsions:
REMARK  status: ('A' for Active; 'I' for Inactive)
REMARK    1  A    between atoms: C1_1  and  O1_2
REMARK    2  A    between atoms: O1_2  and  C2_3
REMARK    3  A    between atoms: C4_5  and  O6_27
REMARK    4  A    between atoms: C7_8  and  C8_9
REMARK    5  A    between atoms: C9_10  and  C10_11
REMARK    6  A    between atoms: C10_11  and  C11_13
REMARK    7  A    between atoms: C11_13  and  C12_14
REMARK    8  A    between atoms: C12_14  and  C13_16
REMARK    9  A    between atoms: C14_17  and  C15_18
REMARK   10  A    between atoms: C17_20  and  O5_25
REMARK   11  A    between atoms: C18_21  and  O4_24
REMARK   12  A    between atoms: O5_25  and  C21_26
REMARK                            x       y       z     vdW  Elec       q    Type
REMARK                         _______ _______ _______ _____ _____    ______ ____
ROOT
ATOM      1  C11 UNL     1       5.123  63.732  82.023  0.00  0.00    +0.000 C 
ENDROOT
BRANCH   1   2
ATOM      2  C10 UNL     1       4.150  63.953  80.899  0.00  0.00    +0.000 C 
ATOM      3  O2  UNL     1       3.842  65.131  80.573  0.00  0.00    +0.000 OA
BRANCH   2   5
ATOM      4  C8  UNL     1       2.479  62.173  80.548  0.00  0.00    +0.000 C 
ATOM      5  C9  UNL     1       3.599  62.799  80.163  0.00  0.00    +0.000 C 
BRANCH   4  11
ATOM      6  C2  UNL     1       0.593  61.079  79.249  0.00  0.00    +0.000 A 
ATOM      7  C3  UNL     1       0.101  59.953  78.557  0.00  0.00    +0.000 A 
ATOM      8  C4  UNL     1       0.902  58.818  78.385  0.00  0.00    +0.000 A 
ATOM      9  C5  UNL     1       2.200  58.799  78.896  0.00  0.00    +0.000 A 
ATOM     10  C6  UNL     1       2.696  59.902  79.592  0.00  0.00    +0.000 A 
ATOM     11  C7  UNL     1       1.897  61.038  79.798  0.00  0.00    +0.000 A 
BRANCH   6  13
ATOM     12  C1  UNL     1      -1.588  62.282  79.537  0.00  0.00    +0.000 C 
ATOM     13  O1  UNL     1      -0.173  62.250  79.379  0.00  0.00    +0.000 OA
ENDBRANCH   6  13
BRANCH   8  14
ATOM     14  O6  UNL     1       0.419  57.706  77.698  0.00  0.00    +0.000 OA
ATOM     15  H20 UNL     1       0.953  56.846  77.636  0.00  0.00    +0.000 HD
ENDBRANCH   8  14
ENDBRANCH   4  11
ENDBRANCH   2   5
ENDBRANCH   1   2
BRANCH   1  16
ATOM     16  C12 UNL     1       4.618  62.728  83.034  0.00  0.00    +0.000 C 
ATOM     17  O3  UNL     1       3.792  63.084  83.918  0.00  0.00    +0.000 OA
BRANCH  16  18
ATOM     18  C13 UNL     1       5.063  61.318  83.027  0.00  0.00    +0.000 C 
ATOM     19  C14 UNL     1       4.228  60.280  82.863  0.00  0.00    +0.000 C 
BRANCH  19  20
ATOM     20  C15 UNL     1       4.674  58.865  82.843  0.00  0.00    +0.000 A 
ATOM     21  C16 UNL     1       4.347  57.983  81.793  0.00  0.00    +0.000 A 
ATOM     22  C17 UNL     1       4.800  56.649  81.808  0.00  0.00    +0.000 A 
ATOM     23  C18 UNL     1       5.593  56.204  82.874  0.00  0.00    +0.000 A 
ATOM     24  C19 UNL     1       5.936  57.082  83.909  0.00  0.00    +0.000 A 
ATOM     25  C20 UNL     1       5.485  58.403  83.890  0.00  0.00    +0.000 A 
BRANCH  23  26
ATOM     26  O4  UNL     1       6.043  54.885  82.895  0.00  0.00    +0.000 OA
ATOM     27  H16 UNL     1       6.124  54.365  83.763  0.00  0.00    +0.000 HD
ENDBRANCH  23  26
BRANCH  22  28
ATOM     28  O5  UNL     1       4.489  55.740  80.784  0.00  0.00    +0.000 OA
ATOM     29  C21 UNL     1       3.337  54.903  80.771  0.00  0.00    +0.000 C 
ENDBRANCH  22  28
ENDBRANCH  19  20
ENDBRANCH  16  18
ENDBRANCH   1  16
TORSDOF 10
ENDMDL
MODEL 2
REMARK VINA RESULT:      -1.9      1.551      6.797
REMARK  Name = .\curcumin.pdb
REMARK  12 active torsions:
REMARK  status: ('A' for Active; 'I' for Inactive)
REMARK    1  A    between atoms: C1_1  and  O1_2
REMARK    2  A    between atoms: O1_2  and  C2_3
REMARK    3  A    between atoms: C4_5  and  O6_27
REMARK    4  A    between atoms: C7_8  and  C8_9
REMARK    5  A    between atoms: C9_10  and  C10_11
REMARK    6  A    between atoms: C10_11  and  C11_13
REMARK    7  A    between atoms: C11_13  and  C12_14
REMARK    8  A    between atoms: C12_14  and  C13_16
REMARK    9  A    between atoms: C14_17  and  C15_18
REMARK   10  A    between atoms: C17_20  and  O5_25
REMARK   11  A    between atoms: C18_21  and  O4_24
REMARK   12  A    between atoms: O5_25  and  C21_26
REMARK                            x       y       z     vdW  Elec       q    Type
REMARK                         _______ _______ _______ _____ _____    ______ ____
ROOT
ATOM      1  C11 UNL     1       5.733  56.905  82.106  0.00  0.00    +0.000 C 
ENDROOT
BRANCH   1   2
ATOM      2  C10 UNL     1       4.971  57.701  83.128  0.00  0.00    +0.000 C 
ATOM      3  O2  UNL     1       4.130  57.117  83.863  0.00  0.00    +0.000 OA
BRANCH   2   5
ATOM      4  C8  UNL     1       4.659  60.071  82.519  0.00  0.00    +0.000 C 
ATOM      5  C9  UNL     1       5.241  59.143  83.290  0.00  0.00    +0.000 C 
BRANCH   4  11
ATOM      6  C2  UNL     1       4.228  62.499  81.918  0.00  0.00    +0.000 A 
ATOM      7  C3  UNL     1       4.512  63.863  82.136  0.00  0.00    +0.000 A 
ATOM      8  C4  UNL     1       5.419  64.252  83.130  0.00  0.00    +0.000 A 
ATOM      9  C5  UNL     1       6.044  63.283  83.917  0.00  0.00    +0.000 A 
ATOM     10  C6  UNL     1       5.779  61.930  83.706  0.00  0.00    +0.000 A 
ATOM     11  C7  UNL     1       4.894  61.522  82.695  0.00  0.00    +0.000 A 
BRANCH   6  13
ATOM     12  C1  UNL     1       2.727  62.932  79.957  0.00  0.00    +0.000 C 
ATOM     13  O1  UNL     1       3.276  62.093  80.968  0.00  0.00    +0.000 OA
ENDBRANCH   6  13
BRANCH   8  14
ATOM     14  O6  UNL     1       5.699  65.599  83.348  0.00  0.00    +0.000 OA
ATOM     15  H20 UNL     1       5.247  66.329  82.810  0.00  0.00    +0.000 HD
ENDBRANCH   8  14
ENDBRANCH   4  11
ENDBRANCH   2   5
ENDBRANCH   1   2
BRANCH   1  16
ATOM     16  C12 UNL     1       4.835  56.004  81.289  0.00  0.00    +0.000 C 
ATOM     17  O3  UNL     1       4.943  54.752  81.385  0.00  0.00    +0.000 OA
BRANCH  16  18
ATOM     18  C13 UNL     1       3.816  56.545  80.364  0.00  0.00    +0.000 C 
ATOM     19  C14 UNL     1       3.129  57.674  80.600  0.00  0.00    +0.000 C 
BRANCH  19  20
ATOM     20  C15 UNL     1       2.115  58.225  79.668  0.00  0.00    +0.000 A 
ATOM     21  C16 UNL     1       1.625  59.543  79.776  0.00  0.00    +0.000 A 
ATOM     22  C17 UNL     1       0.669  60.030  78.863  0.00  0.00    +0.000 A 
ATOM     23  C18 UNL     1       0.213  59.196  77.833  0.00  0.00    +0.000 A 
ATOM     24  C19 UNL     1       0.711  57.894  77.711  0.00  0.00    +0.000 A 
ATOM     25  C20 UNL     1       1.659  57.415  78.617  0.00  0.00    +0.000 A 
BRANCH  23  26
ATOM     26  O4  UNL     1      -0.734  59.673  76.928  0.00  0.00    +0.000 OA
ATOM     27  H16 UNL     1      -1.713  59.759  77.180  0.00  0.00    +0.000 HD
ENDBRANCH  23  26
BRANCH  22  28
ATOM     28  O5  UNL     1       0.152  61.334  78.943  0.00  0.00    +0.000 OA
ATOM     29  C21 UNL     1      -1.006  61.698  79.686  0.00  0.00    +0.000 C 
ENDBRANCH  22  28
ENDBRANCH  19  20
ENDBRANCH  16  18
ENDBRANCH   1  16
TORSDOF 10
ENDMDL
MODEL 3
REMARK VINA RESULT:      -1.7      2.520      4.312
REMARK  Name = .\curcumin.pdb
REMARK  12 active torsions:
REMARK  status: ('A' for Active; 'I' for Inactive)
REMARK    1  A    between atoms: C1_1  and  O1_2
REMARK    2  A    between atoms: O1_2  and  C2_3
REMARK    3  A    between atoms: C4_5  and  O6_27
REMARK    4  A    between atoms: C7_8  and  C8_9
REMARK    5  A    between atoms: C9_10  and  C10_11
REMARK    6  A    between atoms: C10_11  and  C11_13
REMARK    7  A    between atoms: C11_13  and  C12_14
REMARK    8  A    between atoms: C12_14  and  C13_16
REMARK    9  A    between atoms: C14_17  and  C15_18
REMARK   10  A    between atoms: C17_20  and  O5_25
REMARK   11  A    between atoms: C18_21  and  O4_24
REMARK   12  A    between atoms: O5_25  and  C21_26
REMARK                            x       y       z     vdW  Elec       q    Type
REMARK                         _______ _______ _______ _____ _____    ______ ____
ROOT
ATOM      1  C11 UNL     1       4.893  60.018  83.914  0.00  0.00    +0.000 C 
ENDROOT
BRANCH   1   2
ATOM      2  C10 UNL     1       4.772  61.136  82.918  0.00  0.00    +0.000 C 
ATOM      3  O2  UNL     1       5.788  61.827  82.638  0.00  0.00    +0.000 OA
BRANCH   2   5
ATOM      4  C8  UNL     1       3.306  61.193  80.935  0.00  0.00    +0.000 C 
ATOM      5  C9  UNL     1       3.481  61.390  82.248  0.00  0.00    +0.000 C 
BRANCH   4  11
ATOM      6  C2  UNL     1       1.556  62.694  79.872  0.00  0.00    +0.000 A 
ATOM      7  C3  UNL     1       0.301  62.823  79.243  0.00  0.00    +0.000 A 
ATOM      8  C4  UNL     1      -0.480  61.693  78.973  0.00  0.00    +0.000 A 
ATOM      9  C5  UNL     1      -0.013  60.425  79.325  0.00  0.00    +0.000 A 
ATOM     10  C6  UNL     1       1.223  60.284  79.956  0.00  0.00    +0.000 A 
ATOM     11  C7  UNL     1       2.006  61.410  80.259  0.00  0.00    +0.000 A 
BRANCH   6  13
ATOM     12  C1  UNL     1       2.471  64.520  81.326  0.00  0.00    +0.000 C 
ATOM     13  O1  UNL     1       2.381  63.810  80.095  0.00  0.00    +0.000 OA
ENDBRANCH   6  13
BRANCH   8  14
ATOM     14  O6  UNL     1      -1.719  61.818  78.348  0.00  0.00    +0.000 OA
ATOM     15  H20 UNL     1      -2.052  62.710  78.003  0.00  0.00    +0.000 HD
ENDBRANCH   8  14
ENDBRANCH   4  11
ENDBRANCH   2   5
ENDBRANCH   1   2
BRANCH   1  16
ATOM     16  C12 UNL     1       4.936  58.659  83.254  0.00  0.00    +0.000 C 
ATOM     17  O3  UNL     1       6.045  58.108  83.018  0.00  0.00    +0.000 OA
BRANCH  16  18
ATOM     18  C13 UNL     1       3.705  57.937  82.867  0.00  0.00    +0.000 C 
ATOM     19  C14 UNL     1       3.614  57.165  81.772  0.00  0.00    +0.000 C 
BRANCH  19  20
ATOM     20  C15 UNL     1       2.383  56.430  81.389  0.00  0.00    +0.000 A 
ATOM     21  C16 UNL     1       1.538  55.822  82.340  0.00  0.00    +0.000 A 
ATOM     22  C17 UNL     1       0.373  55.142  81.933  0.00  0.00    +0.000 A 
ATOM     23  C18 UNL     1       0.050  55.084  80.571  0.00  0.00    +0.000 A 
ATOM     24  C19 UNL     1       0.877  55.703  79.626  0.00  0.00    +0.000 A 
ATOM     25  C20 UNL     1       2.030  56.376  80.032  0.00  0.00    +0.000 A 
BRANCH  23  26
ATOM     26  O4  UNL     1      -1.100  54.411  80.163  0.00  0.00    +0.000 OA
ATOM     27  H16 UNL     1      -2.003  54.874  80.130  0.00  0.00    +0.000 HD
ENDBRANCH  23  26
BRANCH  22  28
ATOM     28  O5  UNL     1      -0.489  54.518  82.850  0.00  0.00    +0.000 OA
ATOM     29  C21 UNL     1      -1.841  54.902  83.076  0.00  0.00    +0.000 C 
ENDBRANCH  22  28
ENDBRANCH  19  20
ENDBRANCH  16  18
ENDBRANCH   1  16
TORSDOF 10
ENDMDL
MODEL 4
REMARK VINA RESULT:      -1.3      1.843      6.149
REMARK  Name = .\curcumin.pdb
REMARK  12 active torsions:
REMARK  status: ('A' for Active; 'I' for Inactive)
REMARK    1  A    between atoms: C1_1  and  O1_2
REMARK    2  A    between atoms: O1_2  and  C2_3
REMARK    3  A    between atoms: C4_5  and  O6_27
REMARK    4  A    between atoms: C7_8  and  C8_9
REMARK    5  A    between atoms: C9_10  and  C10_11
REMARK    6  A    between atoms: C10_11  and  C11_13
REMARK    7  A    between atoms: C11_13  and  C12_14
REMARK    8  A    between atoms: C12_14  and  C13_16
REMARK    9  A    between atoms: C14_17  and  C15_18
REMARK   10  A    between atoms: C17_20  and  O5_25
REMARK   11  A    between atoms: C18_21  and  O4_24
REMARK   12  A    between atoms: O5_25  and  C21_26
REMARK                            x       y       z     vdW  Elec       q    Type
REMARK                         _______ _______ _______ _____ _____    ______ ____
ROOT
ATOM      1  C11 UNL     1       3.988  56.873  83.914  0.00  0.00    +0.000 C 
ENDROOT
BRANCH   1   2
ATOM      2  C10 UNL     1       5.001  57.741  83.220  0.00  0.00    +0.000 C 
ATOM      3  O2  UNL     1       6.034  57.212  82.729  0.00  0.00    +0.000 OA
BRANCH   2   5
ATOM      4  C8  UNL     1       4.411  59.752  81.920  0.00  0.00    +0.000 C 
ATOM      5  C9  UNL     1       4.760  59.191  83.084  0.00  0.00    +0.000 C 
BRANCH   4  11
ATOM      6  C2  UNL     1       3.084  61.695  80.967  0.00  0.00    +0.000 A 
ATOM      7  C3  UNL     1       2.885  63.088  80.873  0.00  0.00    +0.000 A 
ATOM      8  C4  UNL     1       3.693  63.973  81.599  0.00  0.00    +0.000 A 
ATOM      9  C5  UNL     1       4.700  63.474  82.426  0.00  0.00    +0.000 A 
ATOM     10  C6  UNL     1       4.914  62.099  82.521  0.00  0.00    +0.000 A 
ATOM     11  C7  UNL     1       4.131  61.199  81.779  0.00  0.00    +0.000 A 
BRANCH   6  13
ATOM     12  C1  UNL     1       1.153  61.160  79.460  0.00  0.00    +0.000 C 
ATOM     13  O1  UNL     1       2.245  60.790  80.295  0.00  0.00    +0.000 OA
ENDBRANCH   6  13
BRANCH   8  14
ATOM     14  O6  UNL     1       3.497  65.349  81.510  0.00  0.00    +0.000 OA
ATOM     15  H20 UNL     1       3.735  65.867  80.672  0.00  0.00    +0.000 HD
ENDBRANCH   8  14
ENDBRANCH   4  11
ENDBRANCH   2   5
ENDBRANCH   1   2
BRANCH   1  16
ATOM     16  C12 UNL     1       3.871  55.505  83.283  0.00  0.00    +0.000 C 
ATOM     17  O3  UNL     1       4.251  54.484  83.917  0.00  0.00    +0.000 OA
BRANCH  16  18
ATOM     18  C13 UNL     1       3.318  55.314  81.925  0.00  0.00    +0.000 C 
ATOM     19  C14 UNL     1       2.376  56.108  81.392  0.00  0.00    +0.000 C 
BRANCH  19  20
ATOM     20  C15 UNL     1       1.829  55.926  80.026  0.00  0.00    +0.000 A 
ATOM     21  C16 UNL     1       1.675  56.998  79.123  0.00  0.00    +0.000 A 
ATOM     22  C17 UNL     1       1.161  56.780  77.830  0.00  0.00    +0.000 A 
ATOM     23  C18 UNL     1       0.811  55.480  77.439  0.00  0.00    +0.000 A 
ATOM     24  C19 UNL     1       0.980  54.411  78.325  0.00  0.00    +0.000 A 
ATOM     25  C20 UNL     1       1.490  54.631  79.606  0.00  0.00    +0.000 A 
BRANCH  23  26
ATOM     26  O4  UNL     1       0.300  55.259  76.161  0.00  0.00    +0.000 OA
ATOM     27  H16 UNL     1      -0.659  55.492  75.925  0.00  0.00    +0.000 HD
ENDBRANCH  23  26
BRANCH  22  28
ATOM     28  O5  UNL     1       0.987  57.824  76.906  0.00  0.00    +0.000 OA
ATOM     29  C21 UNL     1       0.362  59.068  77.203  0.00  0.00    +0.000 C 
ENDBRANCH  22  28
ENDBRANCH  19  20
ENDBRANCH  16  18
ENDBRANCH   1  16
TORSDOF 10
ENDMDL
