MODEL 1
REMARK VINA RESULT:       4.7      0.000      0.000
REMARK  Name = .\curcumin.pdb
REMARK  12 active torsions:
REMARK  status: ('A' for Active; 'I' for Inactive)
REMARK    1  A    between atoms: C1_1  and  O1_2
REMARK    2  A    between atoms: O1_2  and  C2_3
REMARK    3  A    between atoms: C4_5  and  O6_27
REMARK    4  A    between atoms: C7_8  and  C8_9
REMARK    5  A    between atoms: C9_10  and  C10_11
REMARK    6  A    between atoms: C10_11  and  C11_13
REMARK    7  A    between atoms: C11_13  and  C12_14
REMARK    8  A    between atoms: C12_14  and  C13_16
REMARK    9  A    between atoms: C14_17  and  C15_18
REMARK   10  A    between atoms: C17_20  and  O5_25
REMARK   11  A    between atoms: C18_21  and  O4_24
REMARK   12  A    between atoms: O5_25  and  C21_26
REMARK                            x       y       z     vdW  Elec       q    Type
REMARK                         _______ _______ _______ _____ _____    ______ ____
ROOT
ATOM      1  C11 UNL     1      -8.244  98.745 121.102  0.00  0.00    +0.000 C 
ENDROOT
BRANCH   1   2
ATOM      2  C10 UNL     1      -7.234  98.858 122.210  0.00  0.00    +0.000 C 
ATOM      3  O2  UNL     1      -6.189  99.538 122.026  0.00  0.00    +0.000 OA
BRANCH   2   5
ATOM      4  C8  UNL     1      -8.157  97.051 123.614  0.00  0.00    +0.000 C 
ATOM      5  C9  UNL     1      -7.492  98.209 123.511  0.00  0.00    +0.000 C 
BRANCH   4  11
ATOM      6  C2  UNL     1      -9.369  95.364 125.073  0.00  0.00    +0.000 A 
ATOM      7  C3  UNL     1      -9.542  94.772 126.341  0.00  0.00    +0.000 A 
ATOM      8  C4  UNL     1      -8.734  95.151 127.420  0.00  0.00    +0.000 A 
ATOM      9  C5  UNL     1      -7.745  96.120 127.241  0.00  0.00    +0.000 A 
ATOM     10  C6  UNL     1      -7.570  96.721 125.994  0.00  0.00    +0.000 A 
ATOM     11  C7  UNL     1      -8.390  96.373 124.909  0.00  0.00    +0.000 A 
BRANCH   6  13
ATOM     12  C1  UNL     1     -10.589  95.818 122.930  0.00  0.00    +0.000 C 
ATOM     13  O1  UNL     1     -10.129  94.954 123.964  0.00  0.00    +0.000 OA
ENDBRANCH   6  13
BRANCH   8  14
ATOM     14  O6  UNL     1      -8.900  94.564 128.672  0.00  0.00    +0.000 OA
ATOM     15  H20 UNL     1      -9.626  93.877 128.845  0.00  0.00    +0.000 HD
ENDBRANCH   8  14
ENDBRANCH   4  11
ENDBRANCH   2   5
ENDBRANCH   1   2
BRANCH   1  16
ATOM     16  C12 UNL     1      -9.596  99.293 121.496  0.00  0.00    +0.000 C 
ATOM     17  O3  UNL     1     -10.455  99.549 120.610  0.00  0.00    +0.000 OA
BRANCH  16  18
ATOM     18  C13 UNL     1      -9.959  99.543 122.908  0.00  0.00    +0.000 C 
ATOM     19  C14 UNL     1     -10.317  98.572 123.762  0.00  0.00    +0.000 C 
BRANCH  19  20
ATOM     20  C15 UNL     1     -10.669  98.819 125.182  0.00  0.00    +0.000 A 
ATOM     21  C16 UNL     1      -9.694  99.053 126.174  0.00  0.00    +0.000 A 
ATOM     22  C17 UNL     1     -10.073  99.295 127.509  0.00  0.00    +0.000 A 
ATOM     23  C18 UNL     1     -11.433  99.312 127.847  0.00  0.00    +0.000 A 
ATOM     24  C19 UNL     1     -12.403  99.099 126.862  0.00  0.00    +0.000 A 
ATOM     25  C20 UNL     1     -12.025  98.860 125.539  0.00  0.00    +0.000 A 
BRANCH  23  26
ATOM     26  O4  UNL     1     -11.812  99.548 129.167  0.00  0.00    +0.000 OA
ATOM     27  H16 UNL     1     -12.073 100.475 129.487  0.00  0.00    +0.000 HD
ENDBRANCH  23  26
BRANCH  22  28
ATOM     28  O5  UNL     1      -9.130  99.525 128.525  0.00  0.00    +0.000 OA
ATOM     29  C21 UNL     1      -7.743  99.220 128.423  0.00  0.00    +0.000 C 
ENDBRANCH  22  28
ENDBRANCH  19  20
ENDBRANCH  16  18
ENDBRANCH   1  16
TORSDOF 10
ENDMDL
