MODEL 1
REMARK VINA RESULT:      -6.6      0.000      0.000
REMARK  Name = .\curcumin.pdb
REMARK  12 active torsions:
REMARK  status: ('A' for Active; 'I' for Inactive)
REMARK    1  A    between atoms: C1_1  and  O1_2
REMARK    2  A    between atoms: O1_2  and  C2_3
REMARK    3  A    between atoms: C4_5  and  O6_27
REMARK    4  A    between atoms: C7_8  and  C8_9
REMARK    5  A    between atoms: C9_10  and  C10_11
REMARK    6  A    between atoms: C10_11  and  C11_13
REMARK    7  A    between atoms: C11_13  and  C12_14
REMARK    8  A    between atoms: C12_14  and  C13_16
REMARK    9  A    between atoms: C14_17  and  C15_18
REMARK   10  A    between atoms: C17_20  and  O5_25
REMARK   11  A    between atoms: C18_21  and  O4_24
REMARK   12  A    between atoms: O5_25  and  C21_26
REMARK                            x       y       z     vdW  Elec       q    Type
REMARK                         _______ _______ _______ _____ _____    ______ ____
ROOT
ATOM      1  C11 UNL     1      -0.335  70.475 113.633  0.00  0.00    +0.000 C 
ENDROOT
BRANCH   1   2
ATOM      2  C10 UNL     1       0.622  69.717 112.757  0.00  0.00    +0.000 C 
ATOM      3  O2  UNL     1       1.831  69.621 113.101  0.00  0.00    +0.000 OA
BRANCH   2   5
ATOM      4  C8  UNL     1      -1.143  69.139 111.134  0.00  0.00    +0.000 C 
ATOM      5  C9  UNL     1       0.134  69.060 111.528  0.00  0.00    +0.000 C 
BRANCH   4  11
ATOM      6  C2  UNL     1      -2.648  67.525 109.878  0.00  0.00    +0.000 A 
ATOM      7  C3  UNL     1      -3.058  66.967 108.650  0.00  0.00    +0.000 A 
ATOM      8  C4  UNL     1      -2.495  67.407 107.445  0.00  0.00    +0.000 A 
ATOM      9  C5  UNL     1      -1.525  68.410 107.457  0.00  0.00    +0.000 A 
ATOM     10  C6  UNL     1      -1.103  68.964 108.666  0.00  0.00    +0.000 A 
ATOM     11  C7  UNL     1      -1.636  68.514 109.885  0.00  0.00    +0.000 A 
BRANCH   6  13
ATOM     12  C1  UNL     1      -4.625  67.291 111.402  0.00  0.00    +0.000 C 
ATOM     13  O1  UNL     1      -3.243  67.140 111.092  0.00  0.00    +0.000 OA
ENDBRANCH   6  13
BRANCH   8  14
ATOM     14  O6  UNL     1      -2.901  66.860 106.230  0.00  0.00    +0.000 OA
ATOM     15  H20 UNL     1      -3.740  66.296 106.156  0.00  0.00    +0.000 HD
ENDBRANCH   8  14
ENDBRANCH   4  11
ENDBRANCH   2   5
ENDBRANCH   1   2
BRANCH   1  16
ATOM     16  C12 UNL     1      -0.204  71.972 113.472  0.00  0.00    +0.000 C 
ATOM     17  O3  UNL     1       0.818  72.566 113.912  0.00  0.00    +0.000 OA
BRANCH  16  18
ATOM     18  C13 UNL     1      -1.247  72.783 112.807  0.00  0.00    +0.000 C 
ATOM     19  C14 UNL     1      -1.780  72.467 111.616  0.00  0.00    +0.000 C 
BRANCH  19  20
ATOM     20  C15 UNL     1      -2.835  73.272 110.953  0.00  0.00    +0.000 A 
ATOM     21  C16 UNL     1      -3.978  72.687 110.370  0.00  0.00    +0.000 A 
ATOM     22  C17 UNL     1      -4.962  73.490 109.759  0.00  0.00    +0.000 A 
ATOM     23  C18 UNL     1      -4.802  74.882 109.743  0.00  0.00    +0.000 A 
ATOM     24  C19 UNL     1      -3.678  75.467 110.337  0.00  0.00    +0.000 A 
ATOM     25  C20 UNL     1      -2.705  74.669 110.942  0.00  0.00    +0.000 A 
BRANCH  23  26
ATOM     26  O4  UNL     1      -5.772  75.680 109.138  0.00  0.00    +0.000 OA
ATOM     27  H16 UNL     1      -5.883  75.708 108.130  0.00  0.00    +0.000 HD
ENDBRANCH  23  26
BRANCH  22  28
ATOM     28  O5  UNL     1      -6.110  72.943 109.162  0.00  0.00    +0.000 OA
ATOM     29  C21 UNL     1      -7.223  72.422 109.881  0.00  0.00    +0.000 C 
ENDBRANCH  22  28
ENDBRANCH  19  20
ENDBRANCH  16  18
ENDBRANCH   1  16
TORSDOF 10
ENDMDL
MODEL 2
REMARK VINA RESULT:      -3.8      1.741      6.660
REMARK  Name = .\curcumin.pdb
REMARK  12 active torsions:
REMARK  status: ('A' for Active; 'I' for Inactive)
REMARK    1  A    between atoms: C1_1  and  O1_2
REMARK    2  A    between atoms: O1_2  and  C2_3
REMARK    3  A    between atoms: C4_5  and  O6_27
REMARK    4  A    between atoms: C7_8  and  C8_9
REMARK    5  A    between atoms: C9_10  and  C10_11
REMARK    6  A    between atoms: C10_11  and  C11_13
REMARK    7  A    between atoms: C11_13  and  C12_14
REMARK    8  A    between atoms: C12_14  and  C13_16
REMARK    9  A    between atoms: C14_17  and  C15_18
REMARK   10  A    between atoms: C17_20  and  O5_25
REMARK   11  A    between atoms: C18_21  and  O4_24
REMARK   12  A    between atoms: O5_25  and  C21_26
REMARK                            x       y       z     vdW  Elec       q    Type
REMARK                         _______ _______ _______ _____ _____    ______ ____
ROOT
ATOM      1  C11 UNL     1      -4.989  74.943 110.068  0.00  0.00    +0.000 C 
ENDROOT
BRANCH   1   2
ATOM      2  C10 UNL     1      -3.492  75.080 110.082  0.00  0.00    +0.000 C 
ATOM      3  O2  UNL     1      -2.939  75.890 109.291  0.00  0.00    +0.000 OA
BRANCH   2   5
ATOM      4  C8  UNL     1      -1.905  73.283 110.662  0.00  0.00    +0.000 C 
ATOM      5  C9  UNL     1      -2.690  74.299 111.044  0.00  0.00    +0.000 C 
BRANCH   4  11
ATOM      6  C2  UNL     1      -0.204  71.476 111.195  0.00  0.00    +0.000 A 
ATOM      7  C3  UNL     1       0.554  70.782 112.160  0.00  0.00    +0.000 A 
ATOM      8  C4  UNL     1       0.480  71.136 113.513  0.00  0.00    +0.000 A 
ATOM      9  C5  UNL     1      -0.346  72.187 113.912  0.00  0.00    +0.000 A 
ATOM     10  C6  UNL     1      -1.109  72.876 112.969  0.00  0.00    +0.000 A 
ATOM     11  C7  UNL     1      -1.068  72.516 111.612  0.00  0.00    +0.000 A 
BRANCH   6  13
ATOM     12  C1  UNL     1       0.837  70.259 109.266  0.00  0.00    +0.000 C 
ATOM     13  O1  UNL     1      -0.097  71.176 109.826  0.00  0.00    +0.000 OA
ENDBRANCH   6  13
BRANCH   8  14
ATOM     14  O6  UNL     1       1.231  70.453 114.468  0.00  0.00    +0.000 OA
ATOM     15  H20 UNL     1       0.791  69.888 115.185  0.00  0.00    +0.000 HD
ENDBRANCH   8  14
ENDBRANCH   4  11
ENDBRANCH   2   5
ENDBRANCH   1   2
BRANCH   1  16
ATOM     16  C12 UNL     1      -5.437  73.502 109.974  0.00  0.00    +0.000 C 
ATOM     17  O3  UNL     1      -6.567  73.224 109.491  0.00  0.00    +0.000 OA
BRANCH  16  18
ATOM     18  C13 UNL     1      -4.583  72.386 110.435  0.00  0.00    +0.000 C 
ATOM     19  C14 UNL     1      -4.562  71.180 109.846  0.00  0.00    +0.000 C 
BRANCH  19  20
ATOM     20  C15 UNL     1      -3.698  70.063 110.300  0.00  0.00    +0.000 A 
ATOM     21  C16 UNL     1      -2.937  69.283 109.404  0.00  0.00    +0.000 A 
ATOM     22  C17 UNL     1      -2.121  68.237 109.879  0.00  0.00    +0.000 A 
ATOM     23  C18 UNL     1      -2.060  67.982 111.255  0.00  0.00    +0.000 A 
ATOM     24  C19 UNL     1      -2.800  68.765 112.148  0.00  0.00    +0.000 A 
ATOM     25  C20 UNL     1      -3.607  69.801 111.675  0.00  0.00    +0.000 A 
BRANCH  23  26
ATOM     26  O4  UNL     1      -1.256  66.947 111.729  0.00  0.00    +0.000 OA
ATOM     27  H16 UNL     1      -0.322  67.120 112.085  0.00  0.00    +0.000 HD
ENDBRANCH  23  26
BRANCH  22  28
ATOM     28  O5  UNL     1      -1.354  67.435 109.017  0.00  0.00    +0.000 OA
ATOM     29  C21 UNL     1      -1.250  67.633 107.611  0.00  0.00    +0.000 C 
ENDBRANCH  22  28
ENDBRANCH  19  20
ENDBRANCH  16  18
ENDBRANCH   1  16
TORSDOF 10
ENDMDL
MODEL 3
REMARK VINA RESULT:      -3.7      1.665      6.345
REMARK  Name = .\curcumin.pdb
REMARK  12 active torsions:
REMARK  status: ('A' for Active; 'I' for Inactive)
REMARK    1  A    between atoms: C1_1  and  O1_2
REMARK    2  A    between atoms: O1_2  and  C2_3
REMARK    3  A    between atoms: C4_5  and  O6_27
REMARK    4  A    between atoms: C7_8  and  C8_9
REMARK    5  A    between atoms: C9_10  and  C10_11
REMARK    6  A    between atoms: C10_11  and  C11_13
REMARK    7  A    between atoms: C11_13  and  C12_14
REMARK    8  A    between atoms: C12_14  and  C13_16
REMARK    9  A    between atoms: C14_17  and  C15_18
REMARK   10  A    between atoms: C17_20  and  O5_25
REMARK   11  A    between atoms: C18_21  and  O4_24
REMARK   12  A    between atoms: O5_25  and  C21_26
REMARK                            x       y       z     vdW  Elec       q    Type
REMARK                         _______ _______ _______ _____ _____    ______ ____
ROOT
ATOM      1  C11 UNL     1      -4.576  74.882 109.347  0.00  0.00    +0.000 C 
ENDROOT
BRANCH   1   2
ATOM      2  C10 UNL     1      -3.311  75.037 110.144  0.00  0.00    +0.000 C 
ATOM      3  O2  UNL     1      -3.117  76.099 110.794  0.00  0.00    +0.000 OA
BRANCH   2   5
ATOM      4  C8  UNL     1      -1.844  73.459 111.345  0.00  0.00    +0.000 C 
ATOM      5  C9  UNL     1      -2.330  73.935 110.191  0.00  0.00    +0.000 C 
BRANCH   4  11
ATOM      6  C2  UNL     1      -0.393  71.820 112.631  0.00  0.00    +0.000 A 
ATOM      7  C3  UNL     1       0.526  70.751 112.610  0.00  0.00    +0.000 A 
ATOM      8  C4  UNL     1       0.922  70.176 111.396  0.00  0.00    +0.000 A 
ATOM      9  C5  UNL     1       0.401  70.660 110.195  0.00  0.00    +0.000 A 
ATOM     10  C6  UNL     1      -0.501  71.724 110.201  0.00  0.00    +0.000 A 
ATOM     11  C7  UNL     1      -0.888  72.330 111.407  0.00  0.00    +0.000 A 
BRANCH   6  13
ATOM     12  C1  UNL     1      -0.299  73.524 114.468  0.00  0.00    +0.000 C 
ATOM     13  O1  UNL     1      -0.849  72.370 113.841  0.00  0.00    +0.000 OA
ENDBRANCH   6  13
BRANCH   8  14
ATOM     14  O6  UNL     1       1.827  69.116 111.374  0.00  0.00    +0.000 OA
ATOM     15  H20 UNL     1       1.633  68.243 111.849  0.00  0.00    +0.000 HD
ENDBRANCH   8  14
ENDBRANCH   4  11
ENDBRANCH   2   5
ENDBRANCH   1   2
BRANCH   1  16
ATOM     16  C12 UNL     1      -5.470  73.791 109.889  0.00  0.00    +0.000 C 
ATOM     17  O3  UNL     1      -6.719  73.952 109.910  0.00  0.00    +0.000 OA
BRANCH  16  18
ATOM     18  C13 UNL     1      -4.924  72.517 110.407  0.00  0.00    +0.000 C 
ATOM     19  C14 UNL     1      -4.168  71.685 109.674  0.00  0.00    +0.000 C 
BRANCH  19  20
ATOM     20  C15 UNL     1      -3.609  70.413 110.194  0.00  0.00    +0.000 A 
ATOM     21  C16 UNL     1      -2.944  69.485 109.367  0.00  0.00    +0.000 A 
ATOM     22  C17 UNL     1      -2.419  68.292 109.904  0.00  0.00    +0.000 A 
ATOM     23  C18 UNL     1      -2.552  68.039 111.276  0.00  0.00    +0.000 A 
ATOM     24  C19 UNL     1      -3.196  68.966 112.103  0.00  0.00    +0.000 A 
ATOM     25  C20 UNL     1      -3.714  70.147 111.567  0.00  0.00    +0.000 A 
BRANCH  23  26
ATOM     26  O4  UNL     1      -2.037  66.860 111.812  0.00  0.00    +0.000 OA
ATOM     27  H16 UNL     1      -1.038  66.712 111.908  0.00  0.00    +0.000 HD
ENDBRANCH  23  26
BRANCH  22  28
ATOM     28  O5  UNL     1      -1.757  67.341 109.111  0.00  0.00    +0.000 OA
ATOM     29  C21 UNL     1      -0.600  67.610 108.325  0.00  0.00    +0.000 C 
ENDBRANCH  22  28
ENDBRANCH  19  20
ENDBRANCH  16  18
ENDBRANCH   1  16
TORSDOF 10
ENDMDL
