MODEL 1
REMARK VINA RESULT:      -3.7      0.000      0.000
REMARK  Name = .\curcumin.pdb
REMARK  12 active torsions:
REMARK  status: ('A' for Active; 'I' for Inactive)
REMARK    1  A    between atoms: C1_1  and  O1_2
REMARK    2  A    between atoms: O1_2  and  C2_3
REMARK    3  A    between atoms: C4_5  and  O6_27
REMARK    4  A    between atoms: C7_8  and  C8_9
REMARK    5  A    between atoms: C9_10  and  C10_11
REMARK    6  A    between atoms: C10_11  and  C11_13
REMARK    7  A    between atoms: C11_13  and  C12_14
REMARK    8  A    between atoms: C12_14  and  C13_16
REMARK    9  A    between atoms: C14_17  and  C15_18
REMARK   10  A    between atoms: C17_20  and  O5_25
REMARK   11  A    between atoms: C18_21  and  O4_24
REMARK   12  A    between atoms: O5_25  and  C21_26
REMARK                            x       y       z     vdW  Elec       q    Type
REMARK                         _______ _______ _______ _____ _____    ______ ____
ROOT
ATOM      1  C11 UNL     1       8.002  56.890  -3.075  0.00  0.00    +0.000 C 
ENDROOT
BRANCH   1   2
ATOM      2  C10 UNL     1       8.328  55.452  -2.782  0.00  0.00    +0.000 C 
ATOM      3  O2  UNL     1       7.665  54.541  -3.346  0.00  0.00    +0.000 OA
BRANCH   2   5
ATOM      4  C8  UNL     1       9.416  55.423  -0.568  0.00  0.00    +0.000 C 
ATOM      5  C9  UNL     1       9.442  55.120  -1.872  0.00  0.00    +0.000 C 
BRANCH   4  11
ATOM      6  C2  UNL     1      11.836  54.834  -0.080  0.00  0.00    +0.000 A 
ATOM      7  C3  UNL     1      12.824  54.482   0.863  0.00  0.00    +0.000 A 
ATOM      8  C4  UNL     1      12.508  54.390   2.225  0.00  0.00    +0.000 A 
ATOM      9  C5  UNL     1      11.207  54.654   2.655  0.00  0.00    +0.000 A 
ATOM     10  C6  UNL     1      10.218  54.994   1.732  0.00  0.00    +0.000 A 
ATOM     11  C7  UNL     1      10.511  55.063   0.361  0.00  0.00    +0.000 A 
BRANCH   6  13
ATOM     12  C1  UNL     1      13.423  54.734  -2.018  0.00  0.00    +0.000 C 
ATOM     13  O1  UNL     1      12.147  54.990  -1.441  0.00  0.00    +0.000 OA
ENDBRANCH   6  13
BRANCH   8  14
ATOM     14  O6  UNL     1      13.484  54.047   3.158  0.00  0.00    +0.000 OA
ATOM     15  H20 UNL     1      14.144  54.729   3.513  0.00  0.00    +0.000 HD
ENDBRANCH   8  14
ENDBRANCH   4  11
ENDBRANCH   2   5
ENDBRANCH   1   2
BRANCH   1  16
ATOM     16  C12 UNL     1       9.213  57.678  -3.517  0.00  0.00    +0.000 C 
ATOM     17  O3  UNL     1       9.314  58.062  -4.713  0.00  0.00    +0.000 OA
BRANCH  16  18
ATOM     18  C13 UNL     1      10.306  58.024  -2.581  0.00  0.00    +0.000 C 
ATOM     19  C14 UNL     1      10.108  58.669  -1.421  0.00  0.00    +0.000 C 
BRANCH  19  20
ATOM     20  C15 UNL     1      11.201  59.006  -0.476  0.00  0.00    +0.000 A 
ATOM     21  C16 UNL     1      11.035  59.936   0.571  0.00  0.00    +0.000 A 
ATOM     22  C17 UNL     1      12.096  60.220   1.454  0.00  0.00    +0.000 A 
ATOM     23  C18 UNL     1      13.321  59.559   1.292  0.00  0.00    +0.000 A 
ATOM     24  C19 UNL     1      13.483  58.622   0.266  0.00  0.00    +0.000 A 
ATOM     25  C20 UNL     1      12.430  58.343  -0.607  0.00  0.00    +0.000 A 
BRANCH  23  26
ATOM     26  O4  UNL     1      14.374  59.837   2.161  0.00  0.00    +0.000 OA
ATOM     27  H16 UNL     1      14.441  60.725   2.648  0.00  0.00    +0.000 HD
ENDBRANCH  23  26
BRANCH  22  28
ATOM     28  O5  UNL     1      11.971  61.145   2.503  0.00  0.00    +0.000 OA
ATOM     29  C21 UNL     1      12.514  62.461   2.487  0.00  0.00    +0.000 C 
ENDBRANCH  22  28
ENDBRANCH  19  20
ENDBRANCH  16  18
ENDBRANCH   1  16
TORSDOF 10
ENDMDL
MODEL 2
REMARK VINA RESULT:      -3.5      1.992      6.645
REMARK  Name = .\curcumin.pdb
REMARK  12 active torsions:
REMARK  status: ('A' for Active; 'I' for Inactive)
REMARK    1  A    between atoms: C1_1  and  O1_2
REMARK    2  A    between atoms: O1_2  and  C2_3
REMARK    3  A    between atoms: C4_5  and  O6_27
REMARK    4  A    between atoms: C7_8  and  C8_9
REMARK    5  A    between atoms: C9_10  and  C10_11
REMARK    6  A    between atoms: C10_11  and  C11_13
REMARK    7  A    between atoms: C11_13  and  C12_14
REMARK    8  A    between atoms: C12_14  and  C13_16
REMARK    9  A    between atoms: C14_17  and  C15_18
REMARK   10  A    between atoms: C17_20  and  O5_25
REMARK   11  A    between atoms: C18_21  and  O4_24
REMARK   12  A    between atoms: O5_25  and  C21_26
REMARK                            x       y       z     vdW  Elec       q    Type
REMARK                         _______ _______ _______ _____ _____    ______ ____
ROOT
ATOM      1  C11 UNL     1      13.578  59.874   1.930  0.00  0.00    +0.000 C 
ENDROOT
BRANCH   1   2
ATOM      2  C10 UNL     1      12.139  60.288   1.802  0.00  0.00    +0.000 C 
ATOM      3  O2  UNL     1      11.720  61.278   2.459  0.00  0.00    +0.000 OA
BRANCH   2   5
ATOM      4  C8  UNL     1      11.363  59.641  -0.449  0.00  0.00    +0.000 C 
ATOM      5  C9  UNL     1      11.242  59.560   0.882  0.00  0.00    +0.000 C 
BRANCH   4  11
ATOM      6  C2  UNL     1       9.866  57.672  -1.018  0.00  0.00    +0.000 A 
ATOM      7  C3  UNL     1       9.060  57.004  -1.964  0.00  0.00    +0.000 A 
ATOM      8  C4  UNL     1       8.856  57.550  -3.237  0.00  0.00    +0.000 A 
ATOM      9  C5  UNL     1       9.448  58.768  -3.574  0.00  0.00    +0.000 A 
ATOM     10  C6  UNL     1      10.255  59.435  -2.651  0.00  0.00    +0.000 A 
ATOM     11  C7  UNL     1      10.493  58.888  -1.380  0.00  0.00    +0.000 A 
BRANCH   6  13
ATOM     12  C1  UNL     1       9.965  55.794   0.640  0.00  0.00    +0.000 C 
ATOM     13  O1  UNL     1      10.033  57.171   0.284  0.00  0.00    +0.000 OA
ENDBRANCH   6  13
BRANCH   8  14
ATOM     14  O6  UNL     1       8.058  56.894  -4.171  0.00  0.00    +0.000 OA
ATOM     15  H20 UNL     1       7.803  55.919  -4.061  0.00  0.00    +0.000 HD
ENDBRANCH   8  14
ENDBRANCH   4  11
ENDBRANCH   2   5
ENDBRANCH   1   2
BRANCH   1  16
ATOM     16  C12 UNL     1      13.763  58.380   1.806  0.00  0.00    +0.000 C 
ATOM     17  O3  UNL     1      13.698  57.649   2.831  0.00  0.00    +0.000 OA
BRANCH  16  18
ATOM     18  C13 UNL     1      14.023  57.728   0.503  0.00  0.00    +0.000 C 
ATOM     19  C14 UNL     1      13.358  56.645   0.074  0.00  0.00    +0.000 C 
BRANCH  19  20
ATOM     20  C15 UNL     1      13.608  55.997  -1.237  0.00  0.00    +0.000 A 
ATOM     21  C16 UNL     1      13.615  56.719  -2.449  0.00  0.00    +0.000 A 
ATOM     22  C17 UNL     1      13.868  56.066  -3.671  0.00  0.00    +0.000 A 
ATOM     23  C18 UNL     1      14.126  54.688  -3.676  0.00  0.00    +0.000 A 
ATOM     24  C19 UNL     1      14.138  53.973  -2.473  0.00  0.00    +0.000 A 
ATOM     25  C20 UNL     1      13.888  54.622  -1.264  0.00  0.00    +0.000 A 
BRANCH  23  26
ATOM     26  O4  UNL     1      14.374  54.038  -4.883  0.00  0.00    +0.000 OA
ATOM     27  H16 UNL     1      14.773  53.105  -4.912  0.00  0.00    +0.000 HD
ENDBRANCH  23  26
BRANCH  22  28
ATOM     28  O5  UNL     1      13.876  56.750  -4.898  0.00  0.00    +0.000 OA
ATOM     29  C21 UNL     1      13.646  58.147  -5.045  0.00  0.00    +0.000 C 
ENDBRANCH  22  28
ENDBRANCH  19  20
ENDBRANCH  16  18
ENDBRANCH   1  16
TORSDOF 10
ENDMDL
MODEL 3
REMARK VINA RESULT:      -3.2      2.001      6.767
REMARK  Name = .\curcumin.pdb
REMARK  12 active torsions:
REMARK  status: ('A' for Active; 'I' for Inactive)
REMARK    1  A    between atoms: C1_1  and  O1_2
REMARK    2  A    between atoms: O1_2  and  C2_3
REMARK    3  A    between atoms: C4_5  and  O6_27
REMARK    4  A    between atoms: C7_8  and  C8_9
REMARK    5  A    between atoms: C9_10  and  C10_11
REMARK    6  A    between atoms: C10_11  and  C11_13
REMARK    7  A    between atoms: C11_13  and  C12_14
REMARK    8  A    between atoms: C12_14  and  C13_16
REMARK    9  A    between atoms: C14_17  and  C15_18
REMARK   10  A    between atoms: C17_20  and  O5_25
REMARK   11  A    between atoms: C18_21  and  O4_24
REMARK   12  A    between atoms: O5_25  and  C21_26
REMARK                            x       y       z     vdW  Elec       q    Type
REMARK                         _______ _______ _______ _____ _____    ______ ____
ROOT
ATOM      1  C11 UNL     1      13.800  59.174   2.146  0.00  0.00    +0.000 C 
ENDROOT
BRANCH   1   2
ATOM      2  C10 UNL     1      12.480  59.774   1.750  0.00  0.00    +0.000 C 
ATOM      3  O2  UNL     1      12.055  60.790   2.364  0.00  0.00    +0.000 OA
BRANCH   2   5
ATOM      4  C8  UNL     1      11.799  59.684  -0.618  0.00  0.00    +0.000 C 
ATOM      5  C9  UNL     1      11.715  59.199   0.627  0.00  0.00    +0.000 C 
BRANCH   4  11
ATOM      6  C2  UNL     1      11.624  59.002  -3.057  0.00  0.00    +0.000 A 
ATOM      7  C3  UNL     1      10.859  58.436  -4.099  0.00  0.00    +0.000 A 
ATOM      8  C4  UNL     1       9.574  57.939  -3.849  0.00  0.00    +0.000 A 
ATOM      9  C5  UNL     1       9.045  57.998  -2.559  0.00  0.00    +0.000 A 
ATOM     10  C6  UNL     1       9.786  58.564  -1.522  0.00  0.00    +0.000 A 
ATOM     11  C7  UNL     1      11.065  59.092  -1.760  0.00  0.00    +0.000 A 
BRANCH   6  13
ATOM     12  C1  UNL     1      13.741  59.099  -4.397  0.00  0.00    +0.000 C 
ATOM     13  O1  UNL     1      12.938  59.450  -3.275  0.00  0.00    +0.000 OA
ENDBRANCH   6  13
BRANCH   8  14
ATOM     14  O6  UNL     1       8.819  57.376  -4.876  0.00  0.00    +0.000 OA
ATOM     15  H20 UNL     1       8.646  57.873  -5.742  0.00  0.00    +0.000 HD
ENDBRANCH   8  14
ENDBRANCH   4  11
ENDBRANCH   2   5
ENDBRANCH   1   2
BRANCH   1  16
ATOM     16  C12 UNL     1      13.761  57.663   2.176  0.00  0.00    +0.000 C 
ATOM     17  O3  UNL     1      14.107  57.045   3.218  0.00  0.00    +0.000 OA
BRANCH  16  18
ATOM     18  C13 UNL     1      13.326  56.868   1.007  0.00  0.00    +0.000 C 
ATOM     19  C14 UNL     1      13.862  56.998  -0.216  0.00  0.00    +0.000 C 
BRANCH  19  20
ATOM     20  C15 UNL     1      13.435  56.193  -1.387  0.00  0.00    +0.000 A 
ATOM     21  C16 UNL     1      12.179  55.556  -1.449  0.00  0.00    +0.000 A 
ATOM     22  C17 UNL     1      11.808  54.809  -2.585  0.00  0.00    +0.000 A 
ATOM     23  C18 UNL     1      12.697  54.712  -3.664  0.00  0.00    +0.000 A 
ATOM     24  C19 UNL     1      13.937  55.358  -3.613  0.00  0.00    +0.000 A 
ATOM     25  C20 UNL     1      14.301  56.098  -2.486  0.00  0.00    +0.000 A 
BRANCH  23  26
ATOM     26  O4  UNL     1      12.336  53.972  -4.789  0.00  0.00    +0.000 OA
ATOM     27  H16 UNL     1      11.953  54.417  -5.617  0.00  0.00    +0.000 HD
ENDBRANCH  23  26
BRANCH  22  28
ATOM     28  O5  UNL     1      10.569  54.155  -2.680  0.00  0.00    +0.000 OA
ATOM     29  C21 UNL     1       9.371  54.601  -2.053  0.00  0.00    +0.000 C 
ENDBRANCH  22  28
ENDBRANCH  19  20
ENDBRANCH  16  18
ENDBRANCH   1  16
TORSDOF 10
ENDMDL
MODEL 4
REMARK VINA RESULT:      -1.6      2.263      6.890
REMARK  Name = .\curcumin.pdb
REMARK  12 active torsions:
REMARK  status: ('A' for Active; 'I' for Inactive)
REMARK    1  A    between atoms: C1_1  and  O1_2
REMARK    2  A    between atoms: O1_2  and  C2_3
REMARK    3  A    between atoms: C4_5  and  O6_27
REMARK    4  A    between atoms: C7_8  and  C8_9
REMARK    5  A    between atoms: C9_10  and  C10_11
REMARK    6  A    between atoms: C10_11  and  C11_13
REMARK    7  A    between atoms: C11_13  and  C12_14
REMARK    8  A    between atoms: C12_14  and  C13_16
REMARK    9  A    between atoms: C14_17  and  C15_18
REMARK   10  A    between atoms: C17_20  and  O5_25
REMARK   11  A    between atoms: C18_21  and  O4_24
REMARK   12  A    between atoms: O5_25  and  C21_26
REMARK                            x       y       z     vdW  Elec       q    Type
REMARK                         _______ _______ _______ _____ _____    ______ ____
ROOT
ATOM      1  C11 UNL     1      11.898  57.007   3.313  0.00  0.00    +0.000 C 
ENDROOT
BRANCH   1   2
ATOM      2  C10 UNL     1      12.805  57.411   2.186  0.00  0.00    +0.000 C 
ATOM      3  O2  UNL     1      14.053  57.387   2.359  0.00  0.00    +0.000 OA
BRANCH   2   5
ATOM      4  C8  UNL     1      12.942  58.448  -0.048  0.00  0.00    +0.000 C 
ATOM      5  C9  UNL     1      12.233  57.792   0.879  0.00  0.00    +0.000 C 
BRANCH   4  11
ATOM      6  C2  UNL     1      13.032  58.446  -2.585  0.00  0.00    +0.000 A 
ATOM      7  C3  UNL     1      12.453  58.830  -3.812  0.00  0.00    +0.000 A 
ATOM      8  C4  UNL     1      11.240  59.530  -3.838  0.00  0.00    +0.000 A 
ATOM      9  C5  UNL     1      10.595  59.846  -2.642  0.00  0.00    +0.000 A 
ATOM     10  C6  UNL     1      11.162  59.481  -1.421  0.00  0.00    +0.000 A 
ATOM     11  C7  UNL     1      12.391  58.803  -1.376  0.00  0.00    +0.000 A 
BRANCH   6  13
ATOM     12  C1  UNL     1      14.312  56.309  -2.873  0.00  0.00    +0.000 C 
ATOM     13  O1  UNL     1      14.216  57.690  -2.540  0.00  0.00    +0.000 OA
ENDBRANCH   6  13
BRANCH   8  14
ATOM     14  O6  UNL     1      10.664  59.908  -5.049  0.00  0.00    +0.000 OA
ATOM     15  H20 UNL     1       9.842  59.442  -5.415  0.00  0.00    +0.000 HD
ENDBRANCH   8  14
ENDBRANCH   4  11
ENDBRANCH   2   5
ENDBRANCH   1   2
BRANCH   1  16
ATOM     16  C12 UNL     1      10.612  56.381   2.824  0.00  0.00    +0.000 C 
ATOM     17  O3  UNL     1       9.587  56.391   3.557  0.00  0.00    +0.000 OA
BRANCH  16  18
ATOM     18  C13 UNL     1      10.508  55.745   1.492  0.00  0.00    +0.000 C 
ATOM     19  C14 UNL     1      10.002  56.366   0.415  0.00  0.00    +0.000 C 
BRANCH  19  20
ATOM     20  C15 UNL     1       9.908  55.735  -0.924  0.00  0.00    +0.000 A 
ATOM     21  C16 UNL     1       8.673  55.493  -1.561  0.00  0.00    +0.000 A 
ATOM     22  C17 UNL     1       8.629  54.901  -2.839  0.00  0.00    +0.000 A 
ATOM     23  C18 UNL     1       9.827  54.561  -3.482  0.00  0.00    +0.000 A 
ATOM     24  C19 UNL     1      11.055  54.817  -2.860  0.00  0.00    +0.000 A 
ATOM     25  C20 UNL     1      11.095  55.404  -1.595  0.00  0.00    +0.000 A 
BRANCH  23  26
ATOM     26  O4  UNL     1       9.789  53.973  -4.745  0.00  0.00    +0.000 OA
ATOM     27  H16 UNL     1       9.437  53.032  -4.882  0.00  0.00    +0.000 HD
ENDBRANCH  23  26
BRANCH  22  28
ATOM     28  O5  UNL     1       7.419  54.638  -3.502  0.00  0.00    +0.000 OA
ATOM     29  C21 UNL     1       7.209  54.814  -4.899  0.00  0.00    +0.000 C 
ENDBRANCH  22  28
ENDBRANCH  19  20
ENDBRANCH  16  18
ENDBRANCH   1  16
TORSDOF 10
ENDMDL
MODEL 5
REMARK VINA RESULT:      -1.2      1.532      2.267
REMARK  Name = .\curcumin.pdb
REMARK  12 active torsions:
REMARK  status: ('A' for Active; 'I' for Inactive)
REMARK    1  A    between atoms: C1_1  and  O1_2
REMARK    2  A    between atoms: O1_2  and  C2_3
REMARK    3  A    between atoms: C4_5  and  O6_27
REMARK    4  A    between atoms: C7_8  and  C8_9
REMARK    5  A    between atoms: C9_10  and  C10_11
REMARK    6  A    between atoms: C10_11  and  C11_13
REMARK    7  A    between atoms: C11_13  and  C12_14
REMARK    8  A    between atoms: C12_14  and  C13_16
REMARK    9  A    between atoms: C14_17  and  C15_18
REMARK   10  A    between atoms: C17_20  and  O5_25
REMARK   11  A    between atoms: C18_21  and  O4_24
REMARK   12  A    between atoms: O5_25  and  C21_26
REMARK                            x       y       z     vdW  Elec       q    Type
REMARK                         _______ _______ _______ _____ _____    ______ ____
ROOT
ATOM      1  C11 UNL     1      10.459  56.651  -4.928  0.00  0.00    +0.000 C 
ENDROOT
BRANCH   1   2
ATOM      2  C10 UNL     1       9.479  55.926  -4.048  0.00  0.00    +0.000 C 
ATOM      3  O2  UNL     1       8.406  55.491  -4.546  0.00  0.00    +0.000 OA
BRANCH   2   5
ATOM      4  C8  UNL     1      10.716  54.803  -2.233  0.00  0.00    +0.000 C 
ATOM      5  C9  UNL     1       9.798  55.695  -2.625  0.00  0.00    +0.000 C 
BRANCH   4  11
ATOM      6  C2  UNL     1      12.359  54.168  -0.405  0.00  0.00    +0.000 A 
ATOM      7  C3  UNL     1      12.618  53.973   0.967  0.00  0.00    +0.000 A 
ATOM      8  C4  UNL     1      11.624  54.222   1.922  0.00  0.00    +0.000 A 
ATOM      9  C5  UNL     1      10.367  54.673   1.516  0.00  0.00    +0.000 A 
ATOM     10  C6  UNL     1      10.094  54.861   0.161  0.00  0.00    +0.000 A 
ATOM     11  C7  UNL     1      11.070  54.589  -0.812  0.00  0.00    +0.000 A 
BRANCH   6  13
ATOM     12  C1  UNL     1      14.285  54.982  -1.787  0.00  0.00    +0.000 C 
ATOM     13  O1  UNL     1      13.360  53.982  -1.372  0.00  0.00    +0.000 OA
ENDBRANCH   6  13
BRANCH   8  14
ATOM     14  O6  UNL     1      11.880  54.033   3.279  0.00  0.00    +0.000 OA
ATOM     15  H20 UNL     1      12.409  53.236   3.614  0.00  0.00    +0.000 HD
ENDBRANCH   8  14
ENDBRANCH   4  11
ENDBRANCH   2   5
ENDBRANCH   1   2
BRANCH   1  16
ATOM     16  C12 UNL     1      11.863  56.630  -4.369  0.00  0.00    +0.000 C 
ATOM     17  O3  UNL     1      12.785  56.050  -5.002  0.00  0.00    +0.000 OA
BRANCH  16  18
ATOM     18  C13 UNL     1      12.203  57.277  -3.083  0.00  0.00    +0.000 C 
ATOM     19  C14 UNL     1      11.315  57.957  -2.341  0.00  0.00    +0.000 C 
BRANCH  19  20
ATOM     20  C15 UNL     1      11.651  58.596  -1.045  0.00  0.00    +0.000 A 
ATOM     21  C16 UNL     1      12.746  58.182  -0.258  0.00  0.00    +0.000 A 
ATOM     22  C17 UNL     1      13.036  58.824   0.962  0.00  0.00    +0.000 A 
ATOM     23  C18 UNL     1      12.232  59.890   1.387  0.00  0.00    +0.000 A 
ATOM     24  C19 UNL     1      11.156  60.315   0.600  0.00  0.00    +0.000 A 
ATOM     25  C20 UNL     1      10.872  59.678  -0.609  0.00  0.00    +0.000 A 
BRANCH  23  26
ATOM     26  O4  UNL     1      12.514  60.527   2.595  0.00  0.00    +0.000 OA
ATOM     27  H16 UNL     1      12.686  61.526   2.641  0.00  0.00    +0.000 HD
ENDBRANCH  23  26
BRANCH  22  28
ATOM     28  O5  UNL     1      14.113  58.435   1.775  0.00  0.00    +0.000 OA
ATOM     29  C21 UNL     1      14.135  57.260   2.579  0.00  0.00    +0.000 C 
ENDBRANCH  22  28
ENDBRANCH  19  20
ENDBRANCH  16  18
ENDBRANCH   1  16
TORSDOF 10
ENDMDL
MODEL 6
REMARK VINA RESULT:      -1.0      2.093      3.422
REMARK  Name = .\curcumin.pdb
REMARK  12 active torsions:
REMARK  status: ('A' for Active; 'I' for Inactive)
REMARK    1  A    between atoms: C1_1  and  O1_2
REMARK    2  A    between atoms: O1_2  and  C2_3
REMARK    3  A    between atoms: C4_5  and  O6_27
REMARK    4  A    between atoms: C7_8  and  C8_9
REMARK    5  A    between atoms: C9_10  and  C10_11
REMARK    6  A    between atoms: C10_11  and  C11_13
REMARK    7  A    between atoms: C11_13  and  C12_14
REMARK    8  A    between atoms: C12_14  and  C13_16
REMARK    9  A    between atoms: C14_17  and  C15_18
REMARK   10  A    between atoms: C17_20  and  O5_25
REMARK   11  A    between atoms: C18_21  and  O4_24
REMARK   12  A    between atoms: O5_25  and  C21_26
REMARK                            x       y       z     vdW  Elec       q    Type
REMARK                         _______ _______ _______ _____ _____    ______ ____
ROOT
ATOM      1  C11 UNL     1      10.541  55.125  -5.024  0.00  0.00    +0.000 C 
ENDROOT
BRANCH   1   2
ATOM      2  C10 UNL     1       9.479  55.130  -3.961  0.00  0.00    +0.000 C 
ATOM      3  O2  UNL     1       8.388  54.537  -4.176  0.00  0.00    +0.000 OA
BRANCH   2   5
ATOM      4  C8  UNL     1       9.699  55.128  -1.505  0.00  0.00    +0.000 C 
ATOM      5  C9  UNL     1       9.735  55.792  -2.667  0.00  0.00    +0.000 C 
BRANCH   4  11
ATOM      6  C2  UNL     1      10.004  57.178  -0.039  0.00  0.00    +0.000 A 
ATOM      7  C3  UNL     1      10.302  57.720   1.228  0.00  0.00    +0.000 A 
ATOM      8  C4  UNL     1      10.549  56.880   2.321  0.00  0.00    +0.000 A 
ATOM      9  C5  UNL     1      10.496  55.495   2.159  0.00  0.00    +0.000 A 
ATOM     10  C6  UNL     1      10.212  54.945   0.909  0.00  0.00    +0.000 A 
ATOM     11  C7  UNL     1       9.990  55.773  -0.204  0.00  0.00    +0.000 A 
BRANCH   6  13
ATOM     12  C1  UNL     1       9.795  59.424  -1.134  0.00  0.00    +0.000 C 
ATOM     13  O1  UNL     1       9.694  58.003  -1.133  0.00  0.00    +0.000 OA
ENDBRANCH   6  13
BRANCH   8  14
ATOM     14  O6  UNL     1      10.839  57.414   3.575  0.00  0.00    +0.000 OA
ATOM     15  H20 UNL     1      11.698  57.187   4.063  0.00  0.00    +0.000 HD
ENDBRANCH   8  14
ENDBRANCH   4  11
ENDBRANCH   2   5
ENDBRANCH   1   2
BRANCH   1  16
ATOM     16  C12 UNL     1      11.912  54.813  -4.469  0.00  0.00    +0.000 C 
ATOM     17  O3  UNL     1      12.651  53.973  -5.049  0.00  0.00    +0.000 OA
BRANCH  16  18
ATOM     18  C13 UNL     1      12.429  55.468  -3.248  0.00  0.00    +0.000 C 
ATOM     19  C14 UNL     1      12.391  56.794  -3.048  0.00  0.00    +0.000 C 
BRANCH  19  20
ATOM     20  C15 UNL     1      12.898  57.452  -1.819  0.00  0.00    +0.000 A 
ATOM     21  C16 UNL     1      13.220  56.729  -0.652  0.00  0.00    +0.000 A 
ATOM     22  C17 UNL     1      13.709  57.392   0.492  0.00  0.00    +0.000 A 
ATOM     23  C18 UNL     1      13.886  58.782   0.458  0.00  0.00    +0.000 A 
ATOM     24  C19 UNL     1      13.585  59.500  -0.705  0.00  0.00    +0.000 A 
ATOM     25  C20 UNL     1      13.101  58.840  -1.836  0.00  0.00    +0.000 A 
BRANCH  23  26
ATOM     26  O4  UNL     1      14.367  59.442   1.587  0.00  0.00    +0.000 OA
ATOM     27  H16 UNL     1      14.991  60.239   1.511  0.00  0.00    +0.000 HD
ENDBRANCH  23  26
BRANCH  22  28
ATOM     28  O5  UNL     1      14.033  56.707   1.674  0.00  0.00    +0.000 OA
ATOM     29  C21 UNL     1      14.188  55.295   1.772  0.00  0.00    +0.000 C 
ENDBRANCH  22  28
ENDBRANCH  19  20
ENDBRANCH  16  18
ENDBRANCH   1  16
TORSDOF 10
ENDMDL
MODEL 7
REMARK VINA RESULT:      -0.8      2.273      5.095
REMARK  Name = .\curcumin.pdb
REMARK  12 active torsions:
REMARK  status: ('A' for Active; 'I' for Inactive)
REMARK    1  A    between atoms: C1_1  and  O1_2
REMARK    2  A    between atoms: O1_2  and  C2_3
REMARK    3  A    between atoms: C4_5  and  O6_27
REMARK    4  A    between atoms: C7_8  and  C8_9
REMARK    5  A    between atoms: C9_10  and  C10_11
REMARK    6  A    between atoms: C10_11  and  C11_13
REMARK    7  A    between atoms: C11_13  and  C12_14
REMARK    8  A    between atoms: C12_14  and  C13_16
REMARK    9  A    between atoms: C14_17  and  C15_18
REMARK   10  A    between atoms: C17_20  and  O5_25
REMARK   11  A    between atoms: C18_21  and  O4_24
REMARK   12  A    between atoms: O5_25  and  C21_26
REMARK                            x       y       z     vdW  Elec       q    Type
REMARK                         _______ _______ _______ _____ _____    ______ ____
ROOT
ATOM      1  C11 UNL     1      14.265  55.366  -3.424  0.00  0.00    +0.000 C 
ENDROOT
BRANCH   1   2
ATOM      2  C10 UNL     1      12.869  55.346  -3.982  0.00  0.00    +0.000 C 
ATOM      3  O2  UNL     1      12.452  54.309  -4.564  0.00  0.00    +0.000 OA
BRANCH   2   5
ATOM      4  C8  UNL     1      10.836  56.455  -3.134  0.00  0.00    +0.000 C 
ATOM      5  C9  UNL     1      11.990  56.519  -3.810  0.00  0.00    +0.000 C 
BRANCH   4  11
ATOM      6  C2  UNL     1       8.577  57.612  -3.209  0.00  0.00    +0.000 A 
ATOM      7  C3  UNL     1       7.812  58.777  -2.995  0.00  0.00    +0.000 A 
ATOM      8  C4  UNL     1       8.408  59.934  -2.477  0.00  0.00    +0.000 A 
ATOM      9  C5  UNL     1       9.768  59.935  -2.164  0.00  0.00    +0.000 A 
ATOM     10  C6  UNL     1      10.538  58.793  -2.380  0.00  0.00    +0.000 A 
ATOM     11  C7  UNL     1       9.963  57.633  -2.924  0.00  0.00    +0.000 A 
BRANCH   6  13
ATOM     12  C1  UNL     1       7.589  55.337  -2.838  0.00  0.00    +0.000 C 
ATOM     13  O1  UNL     1       7.986  56.423  -3.670  0.00  0.00    +0.000 OA
ENDBRANCH   6  13
BRANCH   8  14
ATOM     14  O6  UNL     1       7.653  61.085  -2.262  0.00  0.00    +0.000 OA
ATOM     15  H20 UNL     1       6.652  61.043  -2.106  0.00  0.00    +0.000 HD
ENDBRANCH   8  14
ENDBRANCH   4  11
ENDBRANCH   2   5
ENDBRANCH   1   2
BRANCH   1  16
ATOM     16  C12 UNL     1      14.292  55.143  -1.929  0.00  0.00    +0.000 C 
ATOM     17  O3  UNL     1      14.244  53.973  -1.465  0.00  0.00    +0.000 OA
BRANCH  16  18
ATOM     18  C13 UNL     1      14.374  56.268  -0.971  0.00  0.00    +0.000 C 
ATOM     19  C14 UNL     1      13.325  56.712  -0.263  0.00  0.00    +0.000 C 
BRANCH  19  20
ATOM     20  C15 UNL     1      13.408  57.832   0.708  0.00  0.00    +0.000 A 
ATOM     21  C16 UNL     1      12.748  59.061   0.503  0.00  0.00    +0.000 A 
ATOM     22  C17 UNL     1      12.844  60.095   1.455  0.00  0.00    +0.000 A 
ATOM     23  C18 UNL     1      13.595  59.889   2.620  0.00  0.00    +0.000 A 
ATOM     24  C19 UNL     1      14.236  58.664   2.836  0.00  0.00    +0.000 A 
ATOM     25  C20 UNL     1      14.138  57.642   1.890  0.00  0.00    +0.000 A 
BRANCH  23  26
ATOM     26  O4  UNL     1      13.695  60.910   3.564  0.00  0.00    +0.000 OA
ATOM     27  H16 UNL     1      13.899  61.866   3.294  0.00  0.00    +0.000 HD
ENDBRANCH  23  26
BRANCH  22  28
ATOM     28  O5  UNL     1      12.207  61.335   1.282  0.00  0.00    +0.000 OA
ATOM     29  C21 UNL     1      12.214  62.386   2.242  0.00  0.00    +0.000 C 
ENDBRANCH  22  28
ENDBRANCH  19  20
ENDBRANCH  16  18
ENDBRANCH   1  16
TORSDOF 10
ENDMDL
