MODEL 1
REMARK VINA RESULT:      -8.1      0.000      0.000
REMARK  Name = .\curcumin.pdb
REMARK  12 active torsions:
REMARK  status: ('A' for Active; 'I' for Inactive)
REMARK    1  A    between atoms: C1_1  and  O1_2
REMARK    2  A    between atoms: O1_2  and  C2_3
REMARK    3  A    between atoms: C4_5  and  O6_27
REMARK    4  A    between atoms: C7_8  and  C8_9
REMARK    5  A    between atoms: C9_10  and  C10_11
REMARK    6  A    between atoms: C10_11  and  C11_13
REMARK    7  A    between atoms: C11_13  and  C12_14
REMARK    8  A    between atoms: C12_14  and  C13_16
REMARK    9  A    between atoms: C14_17  and  C15_18
REMARK   10  A    between atoms: C17_20  and  O5_25
REMARK   11  A    between atoms: C18_21  and  O4_24
REMARK   12  A    between atoms: O5_25  and  C21_26
REMARK                            x       y       z     vdW  Elec       q    Type
REMARK                         _______ _______ _______ _____ _____    ______ ____
ROOT
ATOM      1  C11 UNL     1     -13.104  51.656   8.761  0.00  0.00    +0.000 C 
ENDROOT
BRANCH   1   2
ATOM      2  C10 UNL     1     -12.541  53.047   8.679  0.00  0.00    +0.000 C 
ATOM      3  O2  UNL     1     -11.451  53.307   9.255  0.00  0.00    +0.000 OA
BRANCH   2   5
ATOM      4  C8  UNL     1     -14.182  53.778   6.989  0.00  0.00    +0.000 C 
ATOM      5  C9  UNL     1     -13.245  54.082   7.896  0.00  0.00    +0.000 C 
BRANCH   4  11
ATOM      6  C2  UNL     1     -15.050  54.762   4.816  0.00  0.00    +0.000 A 
ATOM      7  C3  UNL     1     -15.758  55.786   4.154  0.00  0.00    +0.000 A 
ATOM      8  C4  UNL     1     -16.355  56.823   4.882  0.00  0.00    +0.000 A 
ATOM      9  C5  UNL     1     -16.255  56.842   6.274  0.00  0.00    +0.000 A 
ATOM     10  C6  UNL     1     -15.549  55.840   6.940  0.00  0.00    +0.000 A 
ATOM     11  C7  UNL     1     -14.921  54.809   6.224  0.00  0.00    +0.000 A 
BRANCH   6  13
ATOM     12  C1  UNL     1     -13.173  53.646   3.583  0.00  0.00    +0.000 C 
ATOM     13  O1  UNL     1     -14.496  53.681   4.108  0.00  0.00    +0.000 OA
ENDBRANCH   6  13
BRANCH   8  14
ATOM     14  O6  UNL     1     -17.058  57.834   4.231  0.00  0.00    +0.000 OA
ATOM     15  H20 UNL     1     -17.309  58.695   4.703  0.00  0.00    +0.000 HD
ENDBRANCH   8  14
ENDBRANCH   4  11
ENDBRANCH   2   5
ENDBRANCH   1   2
BRANCH   1  16
ATOM     16  C12 UNL     1     -12.030  50.609   8.953  0.00  0.00    +0.000 C 
ATOM     17  O3  UNL     1     -11.637  49.922   7.973  0.00  0.00    +0.000 OA
BRANCH  16  18
ATOM     18  C13 UNL     1     -11.411  50.356  10.272  0.00  0.00    +0.000 C 
ATOM     19  C14 UNL     1     -12.059  49.772  11.293  0.00  0.00    +0.000 C 
BRANCH  19  20
ATOM     20  C15 UNL     1     -11.436  49.506  12.613  0.00  0.00    +0.000 A 
ATOM     21  C16 UNL     1     -11.475  48.236  13.225  0.00  0.00    +0.000 A 
ATOM     22  C17 UNL     1     -10.862  48.024  14.476  0.00  0.00    +0.000 A 
ATOM     23  C18 UNL     1     -10.197  49.085  15.105  0.00  0.00    +0.000 A 
ATOM     24  C19 UNL     1     -10.140  50.341  14.491  0.00  0.00    +0.000 A 
ATOM     25  C20 UNL     1     -10.749  50.548  13.252  0.00  0.00    +0.000 A 
BRANCH  23  26
ATOM     26  O4  UNL     1      -9.590  48.880  16.343  0.00  0.00    +0.000 OA
ATOM     27  H16 UNL     1      -8.729  48.351  16.432  0.00  0.00    +0.000 HD
ENDBRANCH  23  26
BRANCH  22  28
ATOM     28  O5  UNL     1     -10.886  46.776  15.120  0.00  0.00    +0.000 OA
ATOM     29  C21 UNL     1     -12.066  46.139  15.600  0.00  0.00    +0.000 C 
ENDBRANCH  22  28
ENDBRANCH  19  20
ENDBRANCH  16  18
ENDBRANCH   1  16
TORSDOF 10
ENDMDL
MODEL 2
REMARK VINA RESULT:      -8.1      1.744      2.487
REMARK  Name = .\curcumin.pdb
REMARK  12 active torsions:
REMARK  status: ('A' for Active; 'I' for Inactive)
REMARK    1  A    between atoms: C1_1  and  O1_2
REMARK    2  A    between atoms: O1_2  and  C2_3
REMARK    3  A    between atoms: C4_5  and  O6_27
REMARK    4  A    between atoms: C7_8  and  C8_9
REMARK    5  A    between atoms: C9_10  and  C10_11
REMARK    6  A    between atoms: C10_11  and  C11_13
REMARK    7  A    between atoms: C11_13  and  C12_14
REMARK    8  A    between atoms: C12_14  and  C13_16
REMARK    9  A    between atoms: C14_17  and  C15_18
REMARK   10  A    between atoms: C17_20  and  O5_25
REMARK   11  A    between atoms: C18_21  and  O4_24
REMARK   12  A    between atoms: O5_25  and  C21_26
REMARK                            x       y       z     vdW  Elec       q    Type
REMARK                         _______ _______ _______ _____ _____    ______ ____
ROOT
ATOM      1  C11 UNL     1     -14.069  53.186   8.557  0.00  0.00    +0.000 C 
ENDROOT
BRANCH   1   2
ATOM      2  C10 UNL     1     -14.481  54.570   8.974  0.00  0.00    +0.000 C 
ATOM      3  O2  UNL     1     -14.128  55.005  10.103  0.00  0.00    +0.000 OA
BRANCH   2   5
ATOM      4  C8  UNL     1     -15.049  55.409   6.725  0.00  0.00    +0.000 C 
ATOM      5  C9  UNL     1     -15.255  55.419   8.048  0.00  0.00    +0.000 C 
BRANCH   4  11
ATOM      6  C2  UNL     1     -16.051  55.852   4.435  0.00  0.00    +0.000 A 
ATOM      7  C3  UNL     1     -16.810  56.691   3.594  0.00  0.00    +0.000 A 
ATOM      8  C4  UNL     1     -17.381  57.869   4.091  0.00  0.00    +0.000 A 
ATOM      9  C5  UNL     1     -17.204  58.215   5.431  0.00  0.00    +0.000 A 
ATOM     10  C6  UNL     1     -16.448  57.399   6.272  0.00  0.00    +0.000 A 
ATOM     11  C7  UNL     1     -15.844  56.229   5.783  0.00  0.00    +0.000 A 
BRANCH   6  13
ATOM     12  C1  UNL     1     -14.157  54.427   3.616  0.00  0.00    +0.000 C 
ATOM     13  O1  UNL     1     -15.520  54.636   3.971  0.00  0.00    +0.000 OA
ENDBRANCH   6  13
BRANCH   8  14
ATOM     14  O6  UNL     1     -18.135  58.697   3.262  0.00  0.00    +0.000 OA
ATOM     15  H20 UNL     1     -19.093  58.941   3.484  0.00  0.00    +0.000 HD
ENDBRANCH   8  14
ENDBRANCH   4  11
ENDBRANCH   2   5
ENDBRANCH   1   2
BRANCH   1  16
ATOM     16  C12 UNL     1     -12.574  53.056   8.382  0.00  0.00    +0.000 C 
ATOM     17  O3  UNL     1     -12.007  53.583   7.387  0.00  0.00    +0.000 OA
BRANCH  16  18
ATOM     18  C13 UNL     1     -11.733  52.321   9.351  0.00  0.00    +0.000 C 
ATOM     19  C14 UNL     1     -12.106  51.166   9.925  0.00  0.00    +0.000 C 
BRANCH  19  20
ATOM     20  C15 UNL     1     -11.259  50.420  10.888  0.00  0.00    +0.000 A 
ATOM     21  C16 UNL     1     -11.151  50.789  12.245  0.00  0.00    +0.000 A 
ATOM     22  C17 UNL     1     -10.344  50.047  13.129  0.00  0.00    +0.000 A 
ATOM     23  C18 UNL     1      -9.653  48.924  12.652  0.00  0.00    +0.000 A 
ATOM     24  C19 UNL     1      -9.773  48.544  11.311  0.00  0.00    +0.000 A 
ATOM     25  C20 UNL     1     -10.574  49.282  10.438  0.00  0.00    +0.000 A 
BRANCH  23  26
ATOM     26  O4  UNL     1      -8.852  48.188  13.522  0.00  0.00    +0.000 OA
ATOM     27  H16 UNL     1      -9.253  47.601  14.246  0.00  0.00    +0.000 HD
ENDBRANCH  23  26
BRANCH  22  28
ATOM     28  O5  UNL     1     -10.207  50.388  14.485  0.00  0.00    +0.000 OA
ATOM     29  C21 UNL     1     -10.905  49.754  15.551  0.00  0.00    +0.000 C 
ENDBRANCH  22  28
ENDBRANCH  19  20
ENDBRANCH  16  18
ENDBRANCH   1  16
TORSDOF 10
ENDMDL
MODEL 3
REMARK VINA RESULT:      -8.0      1.171      1.957
REMARK  Name = .\curcumin.pdb
REMARK  12 active torsions:
REMARK  status: ('A' for Active; 'I' for Inactive)
REMARK    1  A    between atoms: C1_1  and  O1_2
REMARK    2  A    between atoms: O1_2  and  C2_3
REMARK    3  A    between atoms: C4_5  and  O6_27
REMARK    4  A    between atoms: C7_8  and  C8_9
REMARK    5  A    between atoms: C9_10  and  C10_11
REMARK    6  A    between atoms: C10_11  and  C11_13
REMARK    7  A    between atoms: C11_13  and  C12_14
REMARK    8  A    between atoms: C12_14  and  C13_16
REMARK    9  A    between atoms: C14_17  and  C15_18
REMARK   10  A    between atoms: C17_20  and  O5_25
REMARK   11  A    between atoms: C18_21  and  O4_24
REMARK   12  A    between atoms: O5_25  and  C21_26
REMARK                            x       y       z     vdW  Elec       q    Type
REMARK                         _______ _______ _______ _____ _____    ______ ____
ROOT
ATOM      1  C11 UNL     1     -12.617  51.099   8.841  0.00  0.00    +0.000 C 
ENDROOT
BRANCH   1   2
ATOM      2  C10 UNL     1     -12.101  52.508   8.749  0.00  0.00    +0.000 C 
ATOM      3  O2  UNL     1     -11.107  52.848   9.445  0.00  0.00    +0.000 OA
BRANCH   2   5
ATOM      4  C8  UNL     1     -13.976  53.293   7.352  0.00  0.00    +0.000 C 
ATOM      5  C9  UNL     1     -12.733  53.465   7.819  0.00  0.00    +0.000 C 
BRANCH   4  11
ATOM      6  C2  UNL     1     -15.359  55.380   6.931  0.00  0.00    +0.000 A 
ATOM      7  C3  UNL     1     -15.969  56.256   6.009  0.00  0.00    +0.000 A 
ATOM      8  C4  UNL     1     -15.834  56.046   4.631  0.00  0.00    +0.000 A 
ATOM      9  C5  UNL     1     -15.086  54.964   4.163  0.00  0.00    +0.000 A 
ATOM     10  C6  UNL     1     -14.485  54.085   5.064  0.00  0.00    +0.000 A 
ATOM     11  C7  UNL     1     -14.634  54.265   6.449  0.00  0.00    +0.000 A 
BRANCH   6  13
ATOM     12  C1  UNL     1     -16.260  56.588   8.935  0.00  0.00    +0.000 C 
ATOM     13  O1  UNL     1     -15.432  55.609   8.315  0.00  0.00    +0.000 OA
ENDBRANCH   6  13
BRANCH   8  14
ATOM     14  O6  UNL     1     -16.433  56.912   3.719  0.00  0.00    +0.000 OA
ATOM     15  H20 UNL     1     -15.952  57.734   3.373  0.00  0.00    +0.000 HD
ENDBRANCH   8  14
ENDBRANCH   4  11
ENDBRANCH   2   5
ENDBRANCH   1   2
BRANCH   1  16
ATOM     16  C12 UNL     1     -11.514  50.094   9.083  0.00  0.00    +0.000 C 
ATOM     17  O3  UNL     1     -10.996  49.480   8.112  0.00  0.00    +0.000 OA
BRANCH  16  18
ATOM     18  C13 UNL     1     -11.009  49.798  10.442  0.00  0.00    +0.000 C 
ATOM     19  C14 UNL     1     -11.807  49.652  11.511  0.00  0.00    +0.000 C 
BRANCH  19  20
ATOM     20  C15 UNL     1     -11.304  49.342  12.872  0.00  0.00    +0.000 A 
ATOM     21  C16 UNL     1     -11.373  48.048  13.428  0.00  0.00    +0.000 A 
ATOM     22  C17 UNL     1     -10.873  47.795  14.721  0.00  0.00    +0.000 A 
ATOM     23  C18 UNL     1     -10.293  48.841  15.451  0.00  0.00    +0.000 A 
ATOM     24  C19 UNL     1     -10.206  50.122  14.895  0.00  0.00    +0.000 A 
ATOM     25  C20 UNL     1     -10.702  50.370  13.613  0.00  0.00    +0.000 A 
BRANCH  23  26
ATOM     26  O4  UNL     1      -9.799  48.597  16.731  0.00  0.00    +0.000 OA
ATOM     27  H16 UNL     1      -9.682  49.344  17.407  0.00  0.00    +0.000 HD
ENDBRANCH  23  26
BRANCH  22  28
ATOM     28  O5  UNL     1     -10.931  46.522  15.310  0.00  0.00    +0.000 OA
ATOM     29  C21 UNL     1     -12.064  46.001  15.997  0.00  0.00    +0.000 C 
ENDBRANCH  22  28
ENDBRANCH  19  20
ENDBRANCH  16  18
ENDBRANCH   1  16
TORSDOF 10
ENDMDL
MODEL 4
REMARK VINA RESULT:      -7.7      4.024      5.328
REMARK  Name = .\curcumin.pdb
REMARK  12 active torsions:
REMARK  status: ('A' for Active; 'I' for Inactive)
REMARK    1  A    between atoms: C1_1  and  O1_2
REMARK    2  A    between atoms: O1_2  and  C2_3
REMARK    3  A    between atoms: C4_5  and  O6_27
REMARK    4  A    between atoms: C7_8  and  C8_9
REMARK    5  A    between atoms: C9_10  and  C10_11
REMARK    6  A    between atoms: C10_11  and  C11_13
REMARK    7  A    between atoms: C11_13  and  C12_14
REMARK    8  A    between atoms: C12_14  and  C13_16
REMARK    9  A    between atoms: C14_17  and  C15_18
REMARK   10  A    between atoms: C17_20  and  O5_25
REMARK   11  A    between atoms: C18_21  and  O4_24
REMARK   12  A    between atoms: O5_25  and  C21_26
REMARK                            x       y       z     vdW  Elec       q    Type
REMARK                         _______ _______ _______ _____ _____    ______ ____
ROOT
ATOM      1  C11 UNL     1     -11.705  51.833  10.073  0.00  0.00    +0.000 C 
ENDROOT
BRANCH   1   2
ATOM      2  C10 UNL     1     -11.718  51.205   8.707  0.00  0.00    +0.000 C 
ATOM      3  O2  UNL     1     -10.980  50.210   8.479  0.00  0.00    +0.000 OA
BRANCH   2   5
ATOM      4  C8  UNL     1     -12.596  53.012   7.276  0.00  0.00    +0.000 C 
ATOM      5  C9  UNL     1     -12.619  51.731   7.663  0.00  0.00    +0.000 C 
BRANCH   4  11
ATOM      6  C2  UNL     1     -14.760  54.061   6.464  0.00  0.00    +0.000 A 
ATOM      7  C3  UNL     1     -15.539  54.538   5.389  0.00  0.00    +0.000 A 
ATOM      8  C4  UNL     1     -15.033  54.528   4.083  0.00  0.00    +0.000 A 
ATOM      9  C5  UNL     1     -13.745  54.049   3.841  0.00  0.00    +0.000 A 
ATOM     10  C6  UNL     1     -12.967  53.566   4.893  0.00  0.00    +0.000 A 
ATOM     11  C7  UNL     1     -13.469  53.542   6.204  0.00  0.00    +0.000 A 
BRANCH   6  13
ATOM     12  C1  UNL     1     -15.250  55.294   8.591  0.00  0.00    +0.000 C 
ATOM     13  O1  UNL     1     -15.226  54.119   7.788  0.00  0.00    +0.000 OA
ENDBRANCH   6  13
BRANCH   8  14
ATOM     14  O6  UNL     1     -15.800  55.002   3.021  0.00  0.00    +0.000 OA
ATOM     15  H20 UNL     1     -16.465  54.408   2.540  0.00  0.00    +0.000 HD
ENDBRANCH   8  14
ENDBRANCH   4  11
ENDBRANCH   2   5
ENDBRANCH   1   2
BRANCH   1  16
ATOM     16  C12 UNL     1     -12.078  50.854  11.162  0.00  0.00    +0.000 C 
ATOM     17  O3  UNL     1     -11.247  50.573  12.068  0.00  0.00    +0.000 OA
BRANCH  16  18
ATOM     18  C13 UNL     1     -13.403  50.199  11.207  0.00  0.00    +0.000 C 
ATOM     19  C14 UNL     1     -14.558  50.856  11.016  0.00  0.00    +0.000 C 
BRANCH  19  20
ATOM     20  C15 UNL     1     -15.888  50.199  11.049  0.00  0.00    +0.000 A 
ATOM     21  C16 UNL     1     -16.824  50.438  12.076  0.00  0.00    +0.000 A 
ATOM     22  C17 UNL     1     -18.081  49.801  12.063  0.00  0.00    +0.000 A 
ATOM     23  C18 UNL     1     -18.402  48.933  11.010  0.00  0.00    +0.000 A 
ATOM     24  C19 UNL     1     -17.482  48.709   9.980  0.00  0.00    +0.000 A 
ATOM     25  C20 UNL     1     -16.238  49.341   9.996  0.00  0.00    +0.000 A 
BRANCH  23  26
ATOM     26  O4  UNL     1     -19.643  48.299  10.994  0.00  0.00    +0.000 OA
ATOM     27  H16 UNL     1     -20.297  48.430  10.229  0.00  0.00    +0.000 HD
ENDBRANCH  23  26
BRANCH  22  28
ATOM     28  O5  UNL     1     -19.037  50.008  13.071  0.00  0.00    +0.000 OA
ATOM     29  C21 UNL     1     -19.020  49.365  14.342  0.00  0.00    +0.000 C 
ENDBRANCH  22  28
ENDBRANCH  19  20
ENDBRANCH  16  18
ENDBRANCH   1  16
TORSDOF 10
ENDMDL
MODEL 5
REMARK VINA RESULT:      -7.5      1.490     10.689
REMARK  Name = .\curcumin.pdb
REMARK  12 active torsions:
REMARK  status: ('A' for Active; 'I' for Inactive)
REMARK    1  A    between atoms: C1_1  and  O1_2
REMARK    2  A    between atoms: O1_2  and  C2_3
REMARK    3  A    between atoms: C4_5  and  O6_27
REMARK    4  A    between atoms: C7_8  and  C8_9
REMARK    5  A    between atoms: C9_10  and  C10_11
REMARK    6  A    between atoms: C10_11  and  C11_13
REMARK    7  A    between atoms: C11_13  and  C12_14
REMARK    8  A    between atoms: C12_14  and  C13_16
REMARK    9  A    between atoms: C14_17  and  C15_18
REMARK   10  A    between atoms: C17_20  and  O5_25
REMARK   11  A    between atoms: C18_21  and  O4_24
REMARK   12  A    between atoms: O5_25  and  C21_26
REMARK                            x       y       z     vdW  Elec       q    Type
REMARK                         _______ _______ _______ _____ _____    ______ ____
ROOT
ATOM      1  C11 UNL     1     -11.670  51.315   9.310  0.00  0.00    +0.000 C 
ENDROOT
BRANCH   1   2
ATOM      2  C10 UNL     1     -11.055  49.952   9.457  0.00  0.00    +0.000 C 
ATOM      3  O2  UNL     1     -10.832  49.261   8.427  0.00  0.00    +0.000 OA
BRANCH   2   5
ATOM      4  C8  UNL     1     -11.422  49.698  11.883  0.00  0.00    +0.000 C 
ATOM      5  C9  UNL     1     -10.681  49.452  10.795  0.00  0.00    +0.000 C 
BRANCH   4  11
ATOM      6  C2  UNL     1     -10.216  49.860  14.110  0.00  0.00    +0.000 A 
ATOM      7  C3  UNL     1      -9.924  49.290  15.367  0.00  0.00    +0.000 A 
ATOM      8  C4  UNL     1     -10.502  48.073  15.748  0.00  0.00    +0.000 A 
ATOM      9  C5  UNL     1     -11.380  47.419  14.882  0.00  0.00    +0.000 A 
ATOM     10  C6  UNL     1     -11.670  47.967  13.633  0.00  0.00    +0.000 A 
ATOM     11  C7  UNL     1     -11.077  49.172  13.223  0.00  0.00    +0.000 A 
BRANCH   6  13
ATOM     12  C1  UNL     1      -8.339  51.511  13.913  0.00  0.00    +0.000 C 
ATOM     13  O1  UNL     1      -9.694  51.109  13.734  0.00  0.00    +0.000 OA
ENDBRANCH   6  13
BRANCH   8  14
ATOM     14  O6  UNL     1     -10.217  47.510  16.991  0.00  0.00    +0.000 OA
ATOM     15  H20 UNL     1     -10.953  47.187  17.609  0.00  0.00    +0.000 HD
ENDBRANCH   8  14
ENDBRANCH   4  11
ENDBRANCH   2   5
ENDBRANCH   1   2
BRANCH   1  16
ATOM     16  C12 UNL     1     -13.161  51.253   9.068  0.00  0.00    +0.000 C 
ATOM     17  O3  UNL     1     -13.832  50.287   9.519  0.00  0.00    +0.000 OA
BRANCH  16  18
ATOM     18  C13 UNL     1     -13.875  52.303   8.310  0.00  0.00    +0.000 C 
ATOM     19  C14 UNL     1     -13.444  52.788   7.135  0.00  0.00    +0.000 C 
BRANCH  19  20
ATOM     20  C15 UNL     1     -14.166  53.832   6.366  0.00  0.00    +0.000 A 
ATOM     21  C16 UNL     1     -14.943  54.830   6.990  0.00  0.00    +0.000 A 
ATOM     22  C17 UNL     1     -15.603  55.810   6.223  0.00  0.00    +0.000 A 
ATOM     23  C18 UNL     1     -15.474  55.793   4.828  0.00  0.00    +0.000 A 
ATOM     24  C19 UNL     1     -14.689  54.816   4.206  0.00  0.00    +0.000 A 
ATOM     25  C20 UNL     1     -14.035  53.847   4.970  0.00  0.00    +0.000 A 
BRANCH  23  26
ATOM     26  O4  UNL     1     -16.127  56.759   4.064  0.00  0.00    +0.000 OA
ATOM     27  H16 UNL     1     -15.654  57.601   3.754  0.00  0.00    +0.000 HD
ENDBRANCH  23  26
BRANCH  22  28
ATOM     28  O5  UNL     1     -16.391  56.814   6.808  0.00  0.00    +0.000 OA
ATOM     29  C21 UNL     1     -16.511  57.032   8.210  0.00  0.00    +0.000 C 
ENDBRANCH  22  28
ENDBRANCH  19  20
ENDBRANCH  16  18
ENDBRANCH   1  16
TORSDOF 10
ENDMDL
MODEL 6
REMARK VINA RESULT:      -7.4      2.968      5.425
REMARK  Name = .\curcumin.pdb
REMARK  12 active torsions:
REMARK  status: ('A' for Active; 'I' for Inactive)
REMARK    1  A    between atoms: C1_1  and  O1_2
REMARK    2  A    between atoms: O1_2  and  C2_3
REMARK    3  A    between atoms: C4_5  and  O6_27
REMARK    4  A    between atoms: C7_8  and  C8_9
REMARK    5  A    between atoms: C9_10  and  C10_11
REMARK    6  A    between atoms: C10_11  and  C11_13
REMARK    7  A    between atoms: C11_13  and  C12_14
REMARK    8  A    between atoms: C12_14  and  C13_16
REMARK    9  A    between atoms: C14_17  and  C15_18
REMARK   10  A    between atoms: C17_20  and  O5_25
REMARK   11  A    between atoms: C18_21  and  O4_24
REMARK   12  A    between atoms: O5_25  and  C21_26
REMARK                            x       y       z     vdW  Elec       q    Type
REMARK                         _______ _______ _______ _____ _____    ______ ____
ROOT
ATOM      1  C11 UNL     1      -9.379  49.068  12.182  0.00  0.00    +0.000 C 
ENDROOT
BRANCH   1   2
ATOM      2  C10 UNL     1     -10.116  48.858  10.889  0.00  0.00    +0.000 C 
ATOM      3  O2  UNL     1     -10.302  47.684  10.468  0.00  0.00    +0.000 OA
BRANCH   2   5
ATOM      4  C8  UNL     1     -11.842  49.992   9.540  0.00  0.00    +0.000 C 
ATOM      5  C9  UNL     1     -10.648  50.017  10.147  0.00  0.00    +0.000 C 
BRANCH   4  11
ATOM      6  C2  UNL     1     -13.753  51.559   8.961  0.00  0.00    +0.000 A 
ATOM      7  C3  UNL     1     -14.218  52.676   8.237  0.00  0.00    +0.000 A 
ATOM      8  C4  UNL     1     -13.349  53.404   7.415  0.00  0.00    +0.000 A 
ATOM      9  C5  UNL     1     -12.009  53.026   7.314  0.00  0.00    +0.000 A 
ATOM     10  C6  UNL     1     -11.538  51.918   8.017  0.00  0.00    +0.000 A 
ATOM     11  C7  UNL     1     -12.402  51.160   8.824  0.00  0.00    +0.000 A 
BRANCH   6  13
ATOM     12  C1  UNL     1     -15.298  51.433  10.931  0.00  0.00    +0.000 C 
ATOM     13  O1  UNL     1     -14.594  50.853   9.838  0.00  0.00    +0.000 OA
ENDBRANCH   6  13
BRANCH   8  14
ATOM     14  O6  UNL     1     -13.806  54.510   6.702  0.00  0.00    +0.000 OA
ATOM     15  H20 UNL     1     -14.655  54.997   6.964  0.00  0.00    +0.000 HD
ENDBRANCH   8  14
ENDBRANCH   4  11
ENDBRANCH   2   5
ENDBRANCH   1   2
BRANCH   1  16
ATOM     16  C12 UNL     1     -10.206  49.817  13.202  0.00  0.00    +0.000 C 
ATOM     17  O3  UNL     1     -10.394  51.056  13.073  0.00  0.00    +0.000 OA
BRANCH  16  18
ATOM     18  C13 UNL     1     -10.813  49.139  14.368  0.00  0.00    +0.000 C 
ATOM     19  C14 UNL     1     -10.765  49.631  15.616  0.00  0.00    +0.000 C 
BRANCH  19  20
ATOM     20  C15 UNL     1     -11.383  48.959  16.785  0.00  0.00    +0.000 A 
ATOM     21  C16 UNL     1     -12.234  49.635  17.684  0.00  0.00    +0.000 A 
ATOM     22  C17 UNL     1     -12.809  48.956  18.776  0.00  0.00    +0.000 A 
ATOM     23  C18 UNL     1     -12.540  47.593  18.959  0.00  0.00    +0.000 A 
ATOM     24  C19 UNL     1     -11.711  46.915  18.059  0.00  0.00    +0.000 A 
ATOM     25  C20 UNL     1     -11.143  47.590  16.977  0.00  0.00    +0.000 A 
BRANCH  23  26
ATOM     26  O4  UNL     1     -13.105  46.918  20.039  0.00  0.00    +0.000 OA
ATOM     27  H16 UNL     1     -12.997  45.916  20.155  0.00  0.00    +0.000 HD
ENDBRANCH  23  26
BRANCH  22  28
ATOM     28  O5  UNL     1     -13.655  49.598  19.696  0.00  0.00    +0.000 OA
ATOM     29  C21 UNL     1     -14.044  50.965  19.617  0.00  0.00    +0.000 C 
ENDBRANCH  22  28
ENDBRANCH  19  20
ENDBRANCH  16  18
ENDBRANCH   1  16
TORSDOF 10
ENDMDL
MODEL 7
REMARK VINA RESULT:      -7.3      1.515     11.016
REMARK  Name = .\curcumin.pdb
REMARK  12 active torsions:
REMARK  status: ('A' for Active; 'I' for Inactive)
REMARK    1  A    between atoms: C1_1  and  O1_2
REMARK    2  A    between atoms: O1_2  and  C2_3
REMARK    3  A    between atoms: C4_5  and  O6_27
REMARK    4  A    between atoms: C7_8  and  C8_9
REMARK    5  A    between atoms: C9_10  and  C10_11
REMARK    6  A    between atoms: C10_11  and  C11_13
REMARK    7  A    between atoms: C11_13  and  C12_14
REMARK    8  A    between atoms: C12_14  and  C13_16
REMARK    9  A    between atoms: C14_17  and  C15_18
REMARK   10  A    between atoms: C17_20  and  O5_25
REMARK   11  A    between atoms: C18_21  and  O4_24
REMARK   12  A    between atoms: O5_25  and  C21_26
REMARK                            x       y       z     vdW  Elec       q    Type
REMARK                         _______ _______ _______ _____ _____    ______ ____
ROOT
ATOM      1  C11 UNL     1     -11.146  50.464  10.029  0.00  0.00    +0.000 C 
ENDROOT
BRANCH   1   2
ATOM      2  C10 UNL     1     -12.218  50.062  11.004  0.00  0.00    +0.000 C 
ATOM      3  O2  UNL     1     -13.408  49.952  10.602  0.00  0.00    +0.000 OA
BRANCH   2   5
ATOM      4  C8  UNL     1     -11.818  48.511  12.879  0.00  0.00    +0.000 C 
ATOM      5  C9  UNL     1     -11.865  49.763  12.405  0.00  0.00    +0.000 C 
BRANCH   4  11
ATOM      6  C2  UNL     1     -11.734  46.956  14.884  0.00  0.00    +0.000 A 
ATOM      7  C3  UNL     1     -11.342  46.733  16.220  0.00  0.00    +0.000 A 
ATOM      8  C4  UNL     1     -10.634  47.712  16.928  0.00  0.00    +0.000 A 
ATOM      9  C5  UNL     1     -10.307  48.918  16.306  0.00  0.00    +0.000 A 
ATOM     10  C6  UNL     1     -10.696  49.156  14.988  0.00  0.00    +0.000 A 
ATOM     11  C7  UNL     1     -11.430  48.196  14.273  0.00  0.00    +0.000 A 
BRANCH   6  13
ATOM     12  C1  UNL     1     -12.431  44.582  14.482  0.00  0.00    +0.000 C 
ATOM     13  O1  UNL     1     -12.391  45.963  14.138  0.00  0.00    +0.000 OA
ENDBRANCH   6  13
BRANCH   8  14
ATOM     14  O6  UNL     1     -10.244  47.492  18.247  0.00  0.00    +0.000 OA
ATOM     15  H20 UNL     1     -10.870  47.070  18.923  0.00  0.00    +0.000 HD
ENDBRANCH   8  14
ENDBRANCH   4  11
ENDBRANCH   2   5
ENDBRANCH   1   2
BRANCH   1  16
ATOM     16  C12 UNL     1     -11.702  50.794   8.663  0.00  0.00    +0.000 C 
ATOM     17  O3  UNL     1     -11.396  50.082   7.669  0.00  0.00    +0.000 OA
BRANCH  16  18
ATOM     18  C13 UNL     1     -12.609  51.942   8.443  0.00  0.00    +0.000 C 
ATOM     19  C14 UNL     1     -12.957  52.384   7.225  0.00  0.00    +0.000 C 
BRANCH  19  20
ATOM     20  C15 UNL     1     -13.876  53.528   7.002  0.00  0.00    +0.000 A 
ATOM     21  C16 UNL     1     -14.735  53.601   5.885  0.00  0.00    +0.000 A 
ATOM     22  C17 UNL     1     -15.600  54.701   5.717  0.00  0.00    +0.000 A 
ATOM     23  C18 UNL     1     -15.611  55.721   6.677  0.00  0.00    +0.000 A 
ATOM     24  C19 UNL     1     -14.774  55.642   7.795  0.00  0.00    +0.000 A 
ATOM     25  C20 UNL     1     -13.918  54.551   7.960  0.00  0.00    +0.000 A 
BRANCH  23  26
ATOM     26  O4  UNL     1     -16.464  56.812   6.514  0.00  0.00    +0.000 OA
ATOM     27  H16 UNL     1     -17.323  56.739   5.979  0.00  0.00    +0.000 HD
ENDBRANCH  23  26
BRANCH  22  28
ATOM     28  O5  UNL     1     -16.463  54.812   4.615  0.00  0.00    +0.000 OA
ATOM     29  C21 UNL     1     -16.106  55.394   3.365  0.00  0.00    +0.000 C 
ENDBRANCH  22  28
ENDBRANCH  19  20
ENDBRANCH  16  18
ENDBRANCH   1  16
TORSDOF 10
ENDMDL
MODEL 8
REMARK VINA RESULT:      -7.2      4.083     11.033
REMARK  Name = .\curcumin.pdb
REMARK  12 active torsions:
REMARK  status: ('A' for Active; 'I' for Inactive)
REMARK    1  A    between atoms: C1_1  and  O1_2
REMARK    2  A    between atoms: O1_2  and  C2_3
REMARK    3  A    between atoms: C4_5  and  O6_27
REMARK    4  A    between atoms: C7_8  and  C8_9
REMARK    5  A    between atoms: C9_10  and  C10_11
REMARK    6  A    between atoms: C10_11  and  C11_13
REMARK    7  A    between atoms: C11_13  and  C12_14
REMARK    8  A    between atoms: C12_14  and  C13_16
REMARK    9  A    between atoms: C14_17  and  C15_18
REMARK   10  A    between atoms: C17_20  and  O5_25
REMARK   11  A    between atoms: C18_21  and  O4_24
REMARK   12  A    between atoms: O5_25  and  C21_26
REMARK                            x       y       z     vdW  Elec       q    Type
REMARK                         _______ _______ _______ _____ _____    ______ ____
ROOT
ATOM      1  C11 UNL     1     -10.744  47.608  15.685  0.00  0.00    +0.000 C 
ENDROOT
BRANCH   1   2
ATOM      2  C10 UNL     1     -10.981  47.937  17.132  0.00  0.00    +0.000 C 
ATOM      3  O2  UNL     1     -10.178  47.505  18.002  0.00  0.00    +0.000 OA
BRANCH   2   5
ATOM      4  C8  UNL     1     -12.254  49.293  18.752  0.00  0.00    +0.000 C 
ATOM      5  C9  UNL     1     -12.122  48.791  17.518  0.00  0.00    +0.000 C 
BRANCH   4  11
ATOM      6  C2  UNL     1     -14.502  49.712  19.856  0.00  0.00    +0.000 A 
ATOM      7  C3  UNL     1     -15.536  50.614  20.180  0.00  0.00    +0.000 A 
ATOM      8  C4  UNL     1     -15.437  51.966  19.827  0.00  0.00    +0.000 A 
ATOM      9  C5  UNL     1     -14.305  52.428  19.153  0.00  0.00    +0.000 A 
ATOM     10  C6  UNL     1     -13.279  51.544  18.818  0.00  0.00    +0.000 A 
ATOM     11  C7  UNL     1     -13.374  50.180  19.140  0.00  0.00    +0.000 A 
BRANCH   6  13
ATOM     12  C1  UNL     1     -15.255  47.339  19.560  0.00  0.00    +0.000 C 
ATOM     13  O1  UNL     1     -14.554  48.365  20.254  0.00  0.00    +0.000 OA
ENDBRANCH   6  13
BRANCH   8  14
ATOM     14  O6  UNL     1     -16.456  52.860  20.149  0.00  0.00    +0.000 OA
ATOM     15  H20 UNL     1     -16.907  53.428  19.442  0.00  0.00    +0.000 HD
ENDBRANCH   8  14
ENDBRANCH   4  11
ENDBRANCH   2   5
ENDBRANCH   1   2
BRANCH   1  16
ATOM     16  C12 UNL     1     -10.369  48.825  14.870  0.00  0.00    +0.000 C 
ATOM     17  O3  UNL     1      -9.769  49.789  15.418  0.00  0.00    +0.000 OA
BRANCH  16  18
ATOM     18  C13 UNL     1     -10.684  48.930  13.429  0.00  0.00    +0.000 C 
ATOM     19  C14 UNL     1     -10.847  50.100  12.792  0.00  0.00    +0.000 C 
BRANCH  19  20
ATOM     20  C15 UNL     1     -11.151  50.209  11.344  0.00  0.00    +0.000 A 
ATOM     21  C16 UNL     1     -12.030  51.182  10.827  0.00  0.00    +0.000 A 
ATOM     22  C17 UNL     1     -12.283  51.258   9.443  0.00  0.00    +0.000 A 
ATOM     23  C18 UNL     1     -11.643  50.361   8.577  0.00  0.00    +0.000 A 
ATOM     24  C19 UNL     1     -10.756  49.405   9.085  0.00  0.00    +0.000 A 
ATOM     25  C20 UNL     1     -10.507  49.334  10.457  0.00  0.00    +0.000 A 
BRANCH  23  26
ATOM     26  O4  UNL     1     -11.892  50.430   7.207  0.00  0.00    +0.000 OA
ATOM     27  H16 UNL     1     -12.251  51.274   6.774  0.00  0.00    +0.000 HD
ENDBRANCH  23  26
BRANCH  22  28
ATOM     28  O5  UNL     1     -13.157  52.209   8.892  0.00  0.00    +0.000 OA
ATOM     29  C21 UNL     1     -12.815  53.567   8.637  0.00  0.00    +0.000 C 
ENDBRANCH  22  28
ENDBRANCH  19  20
ENDBRANCH  16  18
ENDBRANCH   1  16
TORSDOF 10
ENDMDL
MODEL 9
REMARK VINA RESULT:      -6.8      3.823      4.865
REMARK  Name = .\curcumin.pdb
REMARK  12 active torsions:
REMARK  status: ('A' for Active; 'I' for Inactive)
REMARK    1  A    between atoms: C1_1  and  O1_2
REMARK    2  A    between atoms: O1_2  and  C2_3
REMARK    3  A    between atoms: C4_5  and  O6_27
REMARK    4  A    between atoms: C7_8  and  C8_9
REMARK    5  A    between atoms: C9_10  and  C10_11
REMARK    6  A    between atoms: C10_11  and  C11_13
REMARK    7  A    between atoms: C11_13  and  C12_14
REMARK    8  A    between atoms: C12_14  and  C13_16
REMARK    9  A    between atoms: C14_17  and  C15_18
REMARK   10  A    between atoms: C17_20  and  O5_25
REMARK   11  A    between atoms: C18_21  and  O4_24
REMARK   12  A    between atoms: O5_25  and  C21_26
REMARK                            x       y       z     vdW  Elec       q    Type
REMARK                         _______ _______ _______ _____ _____    ______ ____
ROOT
ATOM      1  C11 UNL     1     -11.630  51.905  10.602  0.00  0.00    +0.000 C 
ENDROOT
BRANCH   1   2
ATOM      2  C10 UNL     1     -12.018  51.797   9.153  0.00  0.00    +0.000 C 
ATOM      3  O2  UNL     1     -11.416  50.973   8.413  0.00  0.00    +0.000 OA
BRANCH   2   5
ATOM      4  C8  UNL     1     -12.912  53.819   8.060  0.00  0.00    +0.000 C 
ATOM      5  C9  UNL     1     -13.121  52.621   8.622  0.00  0.00    +0.000 C 
BRANCH   4  11
ATOM      6  C2  UNL     1     -14.357  54.590   6.120  0.00  0.00    +0.000 A 
ATOM      7  C3  UNL     1     -15.403  55.410   5.648  0.00  0.00    +0.000 A 
ATOM      8  C4  UNL     1     -16.109  56.241   6.528  0.00  0.00    +0.000 A 
ATOM      9  C5  UNL     1     -15.780  56.255   7.884  0.00  0.00    +0.000 A 
ATOM     10  C6  UNL     1     -14.742  55.456   8.363  0.00  0.00    +0.000 A 
ATOM     11  C7  UNL     1     -14.005  54.638   7.490  0.00  0.00    +0.000 A 
BRANCH   6  13
ATOM     12  C1  UNL     1     -13.464  53.924   3.874  0.00  0.00    +0.000 C 
ATOM     13  O1  UNL     1     -13.678  53.706   5.265  0.00  0.00    +0.000 OA
ENDBRANCH   6  13
BRANCH   8  14
ATOM     14  O6  UNL     1     -17.144  57.049   6.064  0.00  0.00    +0.000 OA
ATOM     15  H20 UNL     1     -17.478  56.989   5.109  0.00  0.00    +0.000 HD
ENDBRANCH   8  14
ENDBRANCH   4  11
ENDBRANCH   2   5
ENDBRANCH   1   2
BRANCH   1  16
ATOM     16  C12 UNL     1     -11.883  50.625  11.364  0.00  0.00    +0.000 C 
ATOM     17  O3  UNL     1     -10.960  50.105  12.048  0.00  0.00    +0.000 OA
BRANCH  16  18
ATOM     18  C13 UNL     1     -13.197  49.945  11.339  0.00  0.00    +0.000 C 
ATOM     19  C14 UNL     1     -14.365  50.598  11.239  0.00  0.00    +0.000 C 
BRANCH  19  20
ATOM     20  C15 UNL     1     -15.683  49.918  11.201  0.00  0.00    +0.000 A 
ATOM     21  C16 UNL     1     -16.473  49.735  12.355  0.00  0.00    +0.000 A 
ATOM     22  C17 UNL     1     -17.724  49.092  12.273  0.00  0.00    +0.000 A 
ATOM     23  C18 UNL     1     -18.187  48.644  11.029  0.00  0.00    +0.000 A 
ATOM     24  C19 UNL     1     -17.414  48.840   9.879  0.00  0.00    +0.000 A 
ATOM     25  C20 UNL     1     -16.175  49.478   9.963  0.00  0.00    +0.000 A 
BRANCH  23  26
ATOM     26  O4  UNL     1     -19.423  48.006  10.943  0.00  0.00    +0.000 OA
ATOM     27  H16 UNL     1     -20.293  48.514  11.064  0.00  0.00    +0.000 HD
ENDBRANCH  23  26
BRANCH  22  28
ATOM     28  O5  UNL     1     -18.535  48.886  13.400  0.00  0.00    +0.000 OA
ATOM     29  C21 UNL     1     -19.480  49.828  13.899  0.00  0.00    +0.000 C 
ENDBRANCH  22  28
ENDBRANCH  19  20
ENDBRANCH  16  18
ENDBRANCH   1  16
TORSDOF 10
ENDMDL
