MODEL 1
REMARK VINA RESULT:      -5.2      0.000      0.000
REMARK  Name = .\curcumin.pdb
REMARK  12 active torsions:
REMARK  status: ('A' for Active; 'I' for Inactive)
REMARK    1  A    between atoms: C1_1  and  O1_2
REMARK    2  A    between atoms: O1_2  and  C2_3
REMARK    3  A    between atoms: C4_5  and  O6_27
REMARK    4  A    between atoms: C7_8  and  C8_9
REMARK    5  A    between atoms: C9_10  and  C10_11
REMARK    6  A    between atoms: C10_11  and  C11_13
REMARK    7  A    between atoms: C11_13  and  C12_14
REMARK    8  A    between atoms: C12_14  and  C13_16
REMARK    9  A    between atoms: C14_17  and  C15_18
REMARK   10  A    between atoms: C17_20  and  O5_25
REMARK   11  A    between atoms: C18_21  and  O4_24
REMARK   12  A    between atoms: O5_25  and  C21_26
REMARK                            x       y       z     vdW  Elec       q    Type
REMARK                         _______ _______ _______ _____ _____    ______ ____
ROOT
ATOM      1  C11 UNL     1       6.669  45.000  32.064  0.00  0.00    +0.000 C 
ENDROOT
BRANCH   1   2
ATOM      2  C10 UNL     1       7.898  44.367  32.654  0.00  0.00    +0.000 C 
ATOM      3  O2  UNL     1       8.090  43.131  32.501  0.00  0.00    +0.000 OA
BRANCH   2   5
ATOM      4  C8  UNL     1       8.538  46.018  34.371  0.00  0.00    +0.000 C 
ATOM      5  C9  UNL     1       8.885  45.199  33.370  0.00  0.00    +0.000 C 
BRANCH   4  11
ATOM      6  C2  UNL     1       9.861  46.563  36.468  0.00  0.00    +0.000 A 
ATOM      7  C3  UNL     1      10.800  47.388  37.120  0.00  0.00    +0.000 A 
ATOM      8  C4  UNL     1      11.417  48.442  36.436  0.00  0.00    +0.000 A 
ATOM      9  C5  UNL     1      11.107  48.677  35.095  0.00  0.00    +0.000 A 
ATOM     10  C6  UNL     1      10.173  47.874  34.441  0.00  0.00    +0.000 A 
ATOM     11  C7  UNL     1       9.523  46.831  35.120  0.00  0.00    +0.000 A 
BRANCH   6  13
ATOM     12  C1  UNL     1       9.769  44.129  37.062  0.00  0.00    +0.000 C 
ATOM     13  O1  UNL     1       9.276  45.463  37.119  0.00  0.00    +0.000 OA
ENDBRANCH   6  13
BRANCH   8  14
ATOM     14  O6  UNL     1      12.348  49.257  37.077  0.00  0.00    +0.000 OA
ATOM     15  H20 UNL     1      12.437  49.268  38.087  0.00  0.00    +0.000 HD
ENDBRANCH   8  14
ENDBRANCH   4  11
ENDBRANCH   2   5
ENDBRANCH   1   2
BRANCH   1  16
ATOM     16  C12 UNL     1       6.982  45.852  30.856  0.00  0.00    +0.000 C 
ATOM     17  O3  UNL     1       6.390  45.639  29.764  0.00  0.00    +0.000 OA
BRANCH  16  18
ATOM     18  C13 UNL     1       7.976  46.946  30.905  0.00  0.00    +0.000 C 
ATOM     19  C14 UNL     1       7.727  48.146  31.451  0.00  0.00    +0.000 C 
BRANCH  19  20
ATOM     20  C15 UNL     1       8.726  49.241  31.513  0.00  0.00    +0.000 A 
ATOM     21  C16 UNL     1       8.646  50.286  32.457  0.00  0.00    +0.000 A 
ATOM     22  C17 UNL     1       9.623  51.301  32.488  0.00  0.00    +0.000 A 
ATOM     23  C18 UNL     1      10.688  51.260  31.579  0.00  0.00    +0.000 A 
ATOM     24  C19 UNL     1      10.780  50.214  30.653  0.00  0.00    +0.000 A 
ATOM     25  C20 UNL     1       9.811  49.210  30.625  0.00  0.00    +0.000 A 
BRANCH  23  26
ATOM     26  O4  UNL     1      11.655  52.263  31.604  0.00  0.00    +0.000 OA
ATOM     27  H16 UNL     1      11.481  53.157  32.049  0.00  0.00    +0.000 HD
ENDBRANCH  23  26
BRANCH  22  28
ATOM     28  O5  UNL     1       9.572  52.361  33.408  0.00  0.00    +0.000 OA
ATOM     29  C21 UNL     1      10.163  52.335  34.704  0.00  0.00    +0.000 C 
ENDBRANCH  22  28
ENDBRANCH  19  20
ENDBRANCH  16  18
ENDBRANCH   1  16
TORSDOF 10
ENDMDL
MODEL 2
REMARK VINA RESULT:      -5.0      1.775      2.866
REMARK  Name = .\curcumin.pdb
REMARK  12 active torsions:
REMARK  status: ('A' for Active; 'I' for Inactive)
REMARK    1  A    between atoms: C1_1  and  O1_2
REMARK    2  A    between atoms: O1_2  and  C2_3
REMARK    3  A    between atoms: C4_5  and  O6_27
REMARK    4  A    between atoms: C7_8  and  C8_9
REMARK    5  A    between atoms: C9_10  and  C10_11
REMARK    6  A    between atoms: C10_11  and  C11_13
REMARK    7  A    between atoms: C11_13  and  C12_14
REMARK    8  A    between atoms: C12_14  and  C13_16
REMARK    9  A    between atoms: C14_17  and  C15_18
REMARK   10  A    between atoms: C17_20  and  O5_25
REMARK   11  A    between atoms: C18_21  and  O4_24
REMARK   12  A    between atoms: O5_25  and  C21_26
REMARK                            x       y       z     vdW  Elec       q    Type
REMARK                         _______ _______ _______ _____ _____    ______ ____
ROOT
ATOM      1  C11 UNL     1       8.057  44.214  32.742  0.00  0.00    +0.000 C 
ENDROOT
BRANCH   1   2
ATOM      2  C10 UNL     1       8.415  44.516  34.171  0.00  0.00    +0.000 C 
ATOM      3  O2  UNL     1       8.726  43.569  34.943  0.00  0.00    +0.000 OA
BRANCH   2   5
ATOM      4  C8  UNL     1       9.485  46.427  35.305  0.00  0.00    +0.000 C 
ATOM      5  C9  UNL     1       8.439  45.914  34.645  0.00  0.00    +0.000 C 
BRANCH   4  11
ATOM      6  C2  UNL     1      10.668  48.660  35.546  0.00  0.00    +0.000 A 
ATOM      7  C3  UNL     1      10.648  49.991  36.012  0.00  0.00    +0.000 A 
ATOM      8  C4  UNL     1       9.510  50.505  36.646  0.00  0.00    +0.000 A 
ATOM      9  C5  UNL     1       8.383  49.699  36.814  0.00  0.00    +0.000 A 
ATOM     10  C6  UNL     1       8.394  48.378  36.366  0.00  0.00    +0.000 A 
ATOM     11  C7  UNL     1       9.536  47.837  35.754  0.00  0.00    +0.000 A 
BRANCH   6  13
ATOM     12  C1  UNL     1      12.935  47.592  35.471  0.00  0.00    +0.000 C 
ATOM     13  O1  UNL     1      11.777  48.145  34.854  0.00  0.00    +0.000 OA
ENDBRANCH   6  13
BRANCH   8  14
ATOM     14  O6  UNL     1       9.486  51.821  37.105  0.00  0.00    +0.000 OA
ATOM     15  H20 UNL     1       9.198  52.049  38.049  0.00  0.00    +0.000 HD
ENDBRANCH   8  14
ENDBRANCH   4  11
ENDBRANCH   2   5
ENDBRANCH   1   2
BRANCH   1  16
ATOM     16  C12 UNL     1       7.620  45.446  31.984  0.00  0.00    +0.000 C 
ATOM     17  O3  UNL     1       6.603  45.401  31.241  0.00  0.00    +0.000 OA
BRANCH  16  18
ATOM     18  C13 UNL     1       8.353  46.727  32.082  0.00  0.00    +0.000 C 
ATOM     19  C14 UNL     1       8.634  47.500  31.021  0.00  0.00    +0.000 C 
BRANCH  19  20
ATOM     20  C15 UNL     1       9.358  48.791  31.118  0.00  0.00    +0.000 A 
ATOM     21  C16 UNL     1      10.273  49.221  30.135  0.00  0.00    +0.000 A 
ATOM     22  C17 UNL     1      10.932  50.460  30.261  0.00  0.00    +0.000 A 
ATOM     23  C18 UNL     1      10.662  51.274  31.370  0.00  0.00    +0.000 A 
ATOM     24  C19 UNL     1       9.741  50.858  32.338  0.00  0.00    +0.000 A 
ATOM     25  C20 UNL     1       9.089  49.630  32.210  0.00  0.00    +0.000 A 
BRANCH  23  26
ATOM     26  O4  UNL     1      11.313  52.499  31.500  0.00  0.00    +0.000 OA
ATOM     27  H16 UNL     1      12.315  52.556  31.648  0.00  0.00    +0.000 HD
ENDBRANCH  23  26
BRANCH  22  28
ATOM     28  O5  UNL     1      11.854  50.919  29.306  0.00  0.00    +0.000 OA
ATOM     29  C21 UNL     1      11.559  51.114  27.927  0.00  0.00    +0.000 C 
ENDBRANCH  22  28
ENDBRANCH  19  20
ENDBRANCH  16  18
ENDBRANCH   1  16
TORSDOF 10
ENDMDL
MODEL 3
REMARK VINA RESULT:      -4.9      1.861      6.173
REMARK  Name = .\curcumin.pdb
REMARK  12 active torsions:
REMARK  status: ('A' for Active; 'I' for Inactive)
REMARK    1  A    between atoms: C1_1  and  O1_2
REMARK    2  A    between atoms: O1_2  and  C2_3
REMARK    3  A    between atoms: C4_5  and  O6_27
REMARK    4  A    between atoms: C7_8  and  C8_9
REMARK    5  A    between atoms: C9_10  and  C10_11
REMARK    6  A    between atoms: C10_11  and  C11_13
REMARK    7  A    between atoms: C11_13  and  C12_14
REMARK    8  A    between atoms: C12_14  and  C13_16
REMARK    9  A    between atoms: C14_17  and  C15_18
REMARK   10  A    between atoms: C17_20  and  O5_25
REMARK   11  A    between atoms: C18_21  and  O4_24
REMARK   12  A    between atoms: O5_25  and  C21_26
REMARK                            x       y       z     vdW  Elec       q    Type
REMARK                         _______ _______ _______ _____ _____    ______ ____
ROOT
ATOM      1  C11 UNL     1       7.758  48.394  30.321  0.00  0.00    +0.000 C 
ENDROOT
BRANCH   1   2
ATOM      2  C10 UNL     1       9.094  48.905  30.783  0.00  0.00    +0.000 C 
ATOM      3  O2  UNL     1      10.142  48.498  30.213  0.00  0.00    +0.000 OA
BRANCH   2   5
ATOM      4  C8  UNL     1      10.059  49.819  32.860  0.00  0.00    +0.000 C 
ATOM      5  C9  UNL     1       9.166  49.904  31.867  0.00  0.00    +0.000 C 
BRANCH   4  11
ATOM      6  C2  UNL     1      10.671  52.135  33.700  0.00  0.00    +0.000 A 
ATOM      7  C3  UNL     1      10.753  53.045  34.775  0.00  0.00    +0.000 A 
ATOM      8  C4  UNL     1      10.310  52.679  36.052  0.00  0.00    +0.000 A 
ATOM      9  C5  UNL     1       9.777  51.407  36.265  0.00  0.00    +0.000 A 
ATOM     10  C6  UNL     1       9.700  50.494  35.213  0.00  0.00    +0.000 A 
ATOM     11  C7  UNL     1      10.165  50.834  33.933  0.00  0.00    +0.000 A 
BRANCH   6  13
ATOM     12  C1  UNL     1      12.216  53.260  32.078  0.00  0.00    +0.000 C 
ATOM     13  O1  UNL     1      11.053  52.504  32.399  0.00  0.00    +0.000 OA
ENDBRANCH   6  13
BRANCH   8  14
ATOM     14  O6  UNL     1      10.386  53.578  37.114  0.00  0.00    +0.000 OA
ATOM     15  H20 UNL     1       9.769  54.379  37.178  0.00  0.00    +0.000 HD
ENDBRANCH   8  14
ENDBRANCH   4  11
ENDBRANCH   2   5
ENDBRANCH   1   2
BRANCH   1  16
ATOM     16  C12 UNL     1       7.553  46.933  30.652  0.00  0.00    +0.000 C 
ATOM     17  O3  UNL     1       7.020  46.164  29.808  0.00  0.00    +0.000 OA
BRANCH  16  18
ATOM     18  C13 UNL     1       7.961  46.361  31.953  0.00  0.00    +0.000 C 
ATOM     19  C14 UNL     1       8.076  45.043  32.177  0.00  0.00    +0.000 C 
BRANCH  19  20
ATOM     20  C15 UNL     1       8.497  44.467  33.478  0.00  0.00    +0.000 A 
ATOM     21  C16 UNL     1       8.646  45.252  34.640  0.00  0.00    +0.000 A 
ATOM     22  C17 UNL     1       9.038  44.662  35.858  0.00  0.00    +0.000 A 
ATOM     23  C18 UNL     1       9.268  43.281  35.912  0.00  0.00    +0.000 A 
ATOM     24  C19 UNL     1       9.103  42.497  34.765  0.00  0.00    +0.000 A 
ATOM     25  C20 UNL     1       8.715  43.083  33.560  0.00  0.00    +0.000 A 
BRANCH  23  26
ATOM     26  O4  UNL     1       9.658  42.694  37.115  0.00  0.00    +0.000 OA
ATOM     27  H16 UNL     1      10.298  43.159  37.750  0.00  0.00    +0.000 HD
ENDBRANCH  23  26
BRANCH  22  28
ATOM     28  O5  UNL     1       9.204  45.412  37.034  0.00  0.00    +0.000 OA
ATOM     29  C21 UNL     1       9.402  46.822  37.071  0.00  0.00    +0.000 C 
ENDBRANCH  22  28
ENDBRANCH  19  20
ENDBRANCH  16  18
ENDBRANCH   1  16
TORSDOF 10
ENDMDL
MODEL 4
REMARK VINA RESULT:      -4.9      2.110      5.788
REMARK  Name = .\curcumin.pdb
REMARK  12 active torsions:
REMARK  status: ('A' for Active; 'I' for Inactive)
REMARK    1  A    between atoms: C1_1  and  O1_2
REMARK    2  A    between atoms: O1_2  and  C2_3
REMARK    3  A    between atoms: C4_5  and  O6_27
REMARK    4  A    between atoms: C7_8  and  C8_9
REMARK    5  A    between atoms: C9_10  and  C10_11
REMARK    6  A    between atoms: C10_11  and  C11_13
REMARK    7  A    between atoms: C11_13  and  C12_14
REMARK    8  A    between atoms: C12_14  and  C13_16
REMARK    9  A    between atoms: C14_17  and  C15_18
REMARK   10  A    between atoms: C17_20  and  O5_25
REMARK   11  A    between atoms: C18_21  and  O4_24
REMARK   12  A    between atoms: O5_25  and  C21_26
REMARK                            x       y       z     vdW  Elec       q    Type
REMARK                         _______ _______ _______ _____ _____    ______ ____
ROOT
ATOM      1  C11 UNL     1       8.865  50.421  29.855  0.00  0.00    +0.000 C 
ENDROOT
BRANCH   1   2
ATOM      2  C10 UNL     1      10.321  50.663  30.138  0.00  0.00    +0.000 C 
ATOM      3  O2  UNL     1      11.181  50.328  29.280  0.00  0.00    +0.000 OA
BRANCH   2   5
ATOM      4  C8  UNL     1      11.233  50.641  32.430  0.00  0.00    +0.000 C 
ATOM      5  C9  UNL     1      10.728  51.323  31.394  0.00  0.00    +0.000 C 
BRANCH   4  11
ATOM      6  C2  UNL     1      11.155  50.947  34.949  0.00  0.00    +0.000 A 
ATOM      7  C3  UNL     1      11.620  51.624  36.095  0.00  0.00    +0.000 A 
ATOM      8  C4  UNL     1      12.609  52.609  35.988  0.00  0.00    +0.000 A 
ATOM      9  C5  UNL     1      13.146  52.922  34.739  0.00  0.00    +0.000 A 
ATOM     10  C6  UNL     1      12.689  52.266  33.595  0.00  0.00    +0.000 A 
ATOM     11  C7  UNL     1      11.678  51.296  33.681  0.00  0.00    +0.000 A 
BRANCH   6  13
ATOM     12  C1  UNL     1       9.247  49.785  36.086  0.00  0.00    +0.000 C 
ATOM     13  O1  UNL     1      10.208  49.914  35.043  0.00  0.00    +0.000 OA
ENDBRANCH   6  13
BRANCH   8  14
ATOM     14  O6  UNL     1      13.072  53.277  37.120  0.00  0.00    +0.000 OA
ATOM     15  H20 UNL     1      14.038  53.211  37.418  0.00  0.00    +0.000 HD
ENDBRANCH   8  14
ENDBRANCH   4  11
ENDBRANCH   2   5
ENDBRANCH   1   2
BRANCH   1  16
ATOM     16  C12 UNL     1       8.033  50.363  31.116  0.00  0.00    +0.000 C 
ATOM     17  O3  UNL     1       7.361  51.367  31.474  0.00  0.00    +0.000 OA
BRANCH  16  18
ATOM     18  C13 UNL     1       7.976  49.151  31.961  0.00  0.00    +0.000 C 
ATOM     19  C14 UNL     1       8.368  47.938  31.541  0.00  0.00    +0.000 C 
BRANCH  19  20
ATOM     20  C15 UNL     1       8.323  46.723  32.391  0.00  0.00    +0.000 A 
ATOM     21  C16 UNL     1       8.727  46.730  33.743  0.00  0.00    +0.000 A 
ATOM     22  C17 UNL     1       8.659  45.556  34.518  0.00  0.00    +0.000 A 
ATOM     23  C18 UNL     1       8.173  44.376  33.939  0.00  0.00    +0.000 A 
ATOM     24  C19 UNL     1       7.754  44.370  32.604  0.00  0.00    +0.000 A 
ATOM     25  C20 UNL     1       7.823  45.535  31.838  0.00  0.00    +0.000 A 
BRANCH  23  26
ATOM     26  O4  UNL     1       8.105  43.211  34.701  0.00  0.00    +0.000 OA
ATOM     27  H16 UNL     1       7.570  42.406  34.395  0.00  0.00    +0.000 HD
ENDBRANCH  23  26
BRANCH  22  28
ATOM     28  O5  UNL     1       9.058  45.522  35.864  0.00  0.00    +0.000 OA
ATOM     29  C21 UNL     1       8.388  46.200  36.922  0.00  0.00    +0.000 C 
ENDBRANCH  22  28
ENDBRANCH  19  20
ENDBRANCH  16  18
ENDBRANCH   1  16
TORSDOF 10
ENDMDL
MODEL 5
REMARK VINA RESULT:      -4.6      1.634      5.624
REMARK  Name = .\curcumin.pdb
REMARK  12 active torsions:
REMARK  status: ('A' for Active; 'I' for Inactive)
REMARK    1  A    between atoms: C1_1  and  O1_2
REMARK    2  A    between atoms: O1_2  and  C2_3
REMARK    3  A    between atoms: C4_5  and  O6_27
REMARK    4  A    between atoms: C7_8  and  C8_9
REMARK    5  A    between atoms: C9_10  and  C10_11
REMARK    6  A    between atoms: C10_11  and  C11_13
REMARK    7  A    between atoms: C11_13  and  C12_14
REMARK    8  A    between atoms: C12_14  and  C13_16
REMARK    9  A    between atoms: C14_17  and  C15_18
REMARK   10  A    between atoms: C17_20  and  O5_25
REMARK   11  A    between atoms: C18_21  and  O4_24
REMARK   12  A    between atoms: O5_25  and  C21_26
REMARK                            x       y       z     vdW  Elec       q    Type
REMARK                         _______ _______ _______ _____ _____    ______ ____
ROOT
ATOM      1  C11 UNL     1       7.819  47.560  29.909  0.00  0.00    +0.000 C 
ENDROOT
BRANCH   1   2
ATOM      2  C10 UNL     1       7.950  48.628  30.959  0.00  0.00    +0.000 C 
ATOM      3  O2  UNL     1       7.040  49.491  31.078  0.00  0.00    +0.000 OA
BRANCH   2   5
ATOM      4  C8  UNL     1       9.008  48.901  33.170  0.00  0.00    +0.000 C 
ATOM      5  C9  UNL     1       9.117  48.633  31.863  0.00  0.00    +0.000 C 
BRANCH   4  11
ATOM      6  C2  UNL     1      11.099  49.934  34.173  0.00  0.00    +0.000 A 
ATOM      7  C3  UNL     1      12.183  49.831  35.068  0.00  0.00    +0.000 A 
ATOM      8  C4  UNL     1      12.321  48.708  35.894  0.00  0.00    +0.000 A 
ATOM      9  C5  UNL     1      11.376  47.683  35.836  0.00  0.00    +0.000 A 
ATOM     10  C6  UNL     1      10.303  47.768  34.948  0.00  0.00    +0.000 A 
ATOM     11  C7  UNL     1      10.165  48.873  34.093  0.00  0.00    +0.000 A 
BRANCH   6  13
ATOM     12  C1  UNL     1      11.818  51.536  32.384  0.00  0.00    +0.000 C 
ATOM     13  O1  UNL     1      10.910  51.079  33.381  0.00  0.00    +0.000 OA
ENDBRANCH   6  13
BRANCH   8  14
ATOM     14  O6  UNL     1      13.390  48.606  36.781  0.00  0.00    +0.000 OA
ATOM     15  H20 UNL     1      13.317  48.078  37.643  0.00  0.00    +0.000 HD
ENDBRANCH   8  14
ENDBRANCH   4  11
ENDBRANCH   2   5
ENDBRANCH   1   2
BRANCH   1  16
ATOM     16  C12 UNL     1       7.138  46.316  30.432  0.00  0.00    +0.000 C 
ATOM     17  O3  UNL     1       6.294  45.712  29.717  0.00  0.00    +0.000 OA
BRANCH  16  18
ATOM     18  C13 UNL     1       7.430  45.771  31.775  0.00  0.00    +0.000 C 
ATOM     19  C14 UNL     1       8.349  44.819  32.003  0.00  0.00    +0.000 C 
BRANCH  19  20
ATOM     20  C15 UNL     1       8.651  44.279  33.351  0.00  0.00    +0.000 A 
ATOM     21  C16 UNL     1       8.579  45.070  34.517  0.00  0.00    +0.000 A 
ATOM     22  C17 UNL     1       8.864  44.514  35.780  0.00  0.00    +0.000 A 
ATOM     23  C18 UNL     1       9.211  43.160  35.873  0.00  0.00    +0.000 A 
ATOM     24  C19 UNL     1       9.266  42.368  34.721  0.00  0.00    +0.000 A 
ATOM     25  C20 UNL     1       8.982  42.921  33.471  0.00  0.00    +0.000 A 
BRANCH  23  26
ATOM     26  O4  UNL     1       9.496  42.606  37.120  0.00  0.00    +0.000 OA
ATOM     27  H16 UNL     1       9.330  41.624  37.316  0.00  0.00    +0.000 HD
ENDBRANCH  23  26
BRANCH  22  28
ATOM     28  O5  UNL     1       8.810  45.272  36.961  0.00  0.00    +0.000 OA
ATOM     29  C21 UNL     1       8.049  46.465  37.120  0.00  0.00    +0.000 C 
ENDBRANCH  22  28
ENDBRANCH  19  20
ENDBRANCH  16  18
ENDBRANCH   1  16
TORSDOF 10
ENDMDL
MODEL 6
REMARK VINA RESULT:      -4.4      1.871      5.028
REMARK  Name = .\curcumin.pdb
REMARK  12 active torsions:
REMARK  status: ('A' for Active; 'I' for Inactive)
REMARK    1  A    between atoms: C1_1  and  O1_2
REMARK    2  A    between atoms: O1_2  and  C2_3
REMARK    3  A    between atoms: C4_5  and  O6_27
REMARK    4  A    between atoms: C7_8  and  C8_9
REMARK    5  A    between atoms: C9_10  and  C10_11
REMARK    6  A    between atoms: C10_11  and  C11_13
REMARK    7  A    between atoms: C11_13  and  C12_14
REMARK    8  A    between atoms: C12_14  and  C13_16
REMARK    9  A    between atoms: C14_17  and  C15_18
REMARK   10  A    between atoms: C17_20  and  O5_25
REMARK   11  A    between atoms: C18_21  and  O4_24
REMARK   12  A    between atoms: O5_25  and  C21_26
REMARK                            x       y       z     vdW  Elec       q    Type
REMARK                         _______ _______ _______ _____ _____    ______ ____
ROOT
ATOM      1  C11 UNL     1       7.180  45.044  32.739  0.00  0.00    +0.000 C 
ENDROOT
BRANCH   1   2
ATOM      2  C10 UNL     1       7.209  45.710  31.392  0.00  0.00    +0.000 C 
ATOM      3  O2  UNL     1       6.297  45.458  30.559  0.00  0.00    +0.000 OA
BRANCH   2   5
ATOM      4  C8  UNL     1       8.032  47.987  30.919  0.00  0.00    +0.000 C 
ATOM      5  C9  UNL     1       8.275  46.679  31.071  0.00  0.00    +0.000 C 
BRANCH   4  11
ATOM      6  C2  UNL     1       8.836  50.356  30.488  0.00  0.00    +0.000 A 
ATOM      7  C3  UNL     1       9.902  51.233  30.204  0.00  0.00    +0.000 A 
ATOM      8  C4  UNL     1      11.212  50.751  30.098  0.00  0.00    +0.000 A 
ATOM      9  C5  UNL     1      11.469  49.391  30.279  0.00  0.00    +0.000 A 
ATOM     10  C6  UNL     1      10.422  48.510  30.551  0.00  0.00    +0.000 A 
ATOM     11  C7  UNL     1       9.099  48.973  30.633  0.00  0.00    +0.000 A 
BRANCH   6  13
ATOM     12  C1  UNL     1       7.017  51.404  31.860  0.00  0.00    +0.000 C 
ATOM     13  O1  UNL     1       7.524  50.829  30.659  0.00  0.00    +0.000 OA
ENDBRANCH   6  13
BRANCH   8  14
ATOM     14  O6  UNL     1      12.268  51.617  29.821  0.00  0.00    +0.000 OA
ATOM     15  H20 UNL     1      12.112  52.601  29.633  0.00  0.00    +0.000 HD
ENDBRANCH   8  14
ENDBRANCH   4  11
ENDBRANCH   2   5
ENDBRANCH   1   2
BRANCH   1  16
ATOM     16  C12 UNL     1       8.337  45.464  33.616  0.00  0.00    +0.000 C 
ATOM     17  O3  UNL     1       9.261  44.647  33.875  0.00  0.00    +0.000 OA
BRANCH  16  18
ATOM     18  C13 UNL     1       8.429  46.823  34.193  0.00  0.00    +0.000 C 
ATOM     19  C14 UNL     1       9.554  47.554  34.187  0.00  0.00    +0.000 C 
BRANCH  19  20
ATOM     20  C15 UNL     1       9.645  48.922  34.754  0.00  0.00    +0.000 A 
ATOM     21  C16 UNL     1       9.892  50.057  33.955  0.00  0.00    +0.000 A 
ATOM     22  C17 UNL     1       9.960  51.340  34.533  0.00  0.00    +0.000 A 
ATOM     23  C18 UNL     1       9.769  51.484  35.913  0.00  0.00    +0.000 A 
ATOM     24  C19 UNL     1       9.505  50.362  36.706  0.00  0.00    +0.000 A 
ATOM     25  C20 UNL     1       9.438  49.092  36.131  0.00  0.00    +0.000 A 
BRANCH  23  26
ATOM     26  O4  UNL     1       9.837  52.751  36.490  0.00  0.00    +0.000 OA
ATOM     27  H16 UNL     1      10.237  52.894  37.412  0.00  0.00    +0.000 HD
ENDBRANCH  23  26
BRANCH  22  28
ATOM     28  O5  UNL     1      10.211  52.493  33.770  0.00  0.00    +0.000 OA
ATOM     29  C21 UNL     1      11.508  52.940  33.387  0.00  0.00    +0.000 C 
ENDBRANCH  22  28
ENDBRANCH  19  20
ENDBRANCH  16  18
ENDBRANCH   1  16
TORSDOF 10
ENDMDL
MODEL 7
REMARK VINA RESULT:      -4.3      1.281      2.213
REMARK  Name = .\curcumin.pdb
REMARK  12 active torsions:
REMARK  status: ('A' for Active; 'I' for Inactive)
REMARK    1  A    between atoms: C1_1  and  O1_2
REMARK    2  A    between atoms: O1_2  and  C2_3
REMARK    3  A    between atoms: C4_5  and  O6_27
REMARK    4  A    between atoms: C7_8  and  C8_9
REMARK    5  A    between atoms: C9_10  and  C10_11
REMARK    6  A    between atoms: C10_11  and  C11_13
REMARK    7  A    between atoms: C11_13  and  C12_14
REMARK    8  A    between atoms: C12_14  and  C13_16
REMARK    9  A    between atoms: C14_17  and  C15_18
REMARK   10  A    between atoms: C17_20  and  O5_25
REMARK   11  A    between atoms: C18_21  and  O4_24
REMARK   12  A    between atoms: O5_25  and  C21_26
REMARK                            x       y       z     vdW  Elec       q    Type
REMARK                         _______ _______ _______ _____ _____    ______ ____
ROOT
ATOM      1  C11 UNL     1       6.767  45.388  32.282  0.00  0.00    +0.000 C 
ENDROOT
BRANCH   1   2
ATOM      2  C10 UNL     1       7.977  44.681  32.827  0.00  0.00    +0.000 C 
ATOM      3  O2  UNL     1       8.128  43.451  32.599  0.00  0.00    +0.000 OA
BRANCH   2   5
ATOM      4  C8  UNL     1       8.735  46.633  34.130  0.00  0.00    +0.000 C 
ATOM      5  C9  UNL     1       8.992  45.437  33.586  0.00  0.00    +0.000 C 
BRANCH   4  11
ATOM      6  C2  UNL     1       9.839  47.257  36.330  0.00  0.00    +0.000 A 
ATOM      7  C3  UNL     1      10.808  48.014  37.020  0.00  0.00    +0.000 A 
ATOM      8  C4  UNL     1      11.680  48.859  36.322  0.00  0.00    +0.000 A 
ATOM      9  C5  UNL     1      11.595  48.951  34.932  0.00  0.00    +0.000 A 
ATOM     10  C6  UNL     1      10.635  48.215  34.238  0.00  0.00    +0.000 A 
ATOM     11  C7  UNL     1       9.734  47.384  34.924  0.00  0.00    +0.000 A 
BRANCH   6  13
ATOM     12  C1  UNL     1       7.584  46.498  37.120  0.00  0.00    +0.000 C 
ATOM     13  O1  UNL     1       8.996  46.358  37.005  0.00  0.00    +0.000 OA
ENDBRANCH   6  13
BRANCH   8  14
ATOM     14  O6  UNL     1      12.640  49.606  37.002  0.00  0.00    +0.000 OA
ATOM     15  H20 UNL     1      13.602  49.647  36.686  0.00  0.00    +0.000 HD
ENDBRANCH   8  14
ENDBRANCH   4  11
ENDBRANCH   2   5
ENDBRANCH   1   2
BRANCH   1  16
ATOM     16  C12 UNL     1       7.033  46.040  30.945  0.00  0.00    +0.000 C 
ATOM     17  O3  UNL     1       6.318  45.748  29.949  0.00  0.00    +0.000 OA
BRANCH  16  18
ATOM     18  C13 UNL     1       8.120  47.025  30.756  0.00  0.00    +0.000 C 
ATOM     19  C14 UNL     1       8.062  48.285  31.215  0.00  0.00    +0.000 C 
BRANCH  19  20
ATOM     20  C15 UNL     1       9.156  49.271  31.038  0.00  0.00    +0.000 A 
ATOM     21  C16 UNL     1      10.166  49.114  30.067  0.00  0.00    +0.000 A 
ATOM     22  C17 UNL     1      11.182  50.080  29.924  0.00  0.00    +0.000 A 
ATOM     23  C18 UNL     1      11.176  51.212  30.752  0.00  0.00    +0.000 A 
ATOM     24  C19 UNL     1      10.165  51.380  31.704  0.00  0.00    +0.000 A 
ATOM     25  C20 UNL     1       9.160  50.421  31.842  0.00  0.00    +0.000 A 
BRANCH  23  26
ATOM     26  O4  UNL     1      12.179  52.170  30.616  0.00  0.00    +0.000 OA
ATOM     27  H16 UNL     1      13.139  51.974  30.879  0.00  0.00    +0.000 HD
ENDBRANCH  23  26
BRANCH  22  28
ATOM     28  O5  UNL     1      12.208  49.955  28.974  0.00  0.00    +0.000 OA
ATOM     29  C21 UNL     1      12.230  50.624  27.717  0.00  0.00    +0.000 C 
ENDBRANCH  22  28
ENDBRANCH  19  20
ENDBRANCH  16  18
ENDBRANCH   1  16
TORSDOF 10
ENDMDL
MODEL 8
REMARK VINA RESULT:      -4.1      1.801      6.104
REMARK  Name = .\curcumin.pdb
REMARK  12 active torsions:
REMARK  status: ('A' for Active; 'I' for Inactive)
REMARK    1  A    between atoms: C1_1  and  O1_2
REMARK    2  A    between atoms: O1_2  and  C2_3
REMARK    3  A    between atoms: C4_5  and  O6_27
REMARK    4  A    between atoms: C7_8  and  C8_9
REMARK    5  A    between atoms: C9_10  and  C10_11
REMARK    6  A    between atoms: C10_11  and  C11_13
REMARK    7  A    between atoms: C11_13  and  C12_14
REMARK    8  A    between atoms: C12_14  and  C13_16
REMARK    9  A    between atoms: C14_17  and  C15_18
REMARK   10  A    between atoms: C17_20  and  O5_25
REMARK   11  A    between atoms: C18_21  and  O4_24
REMARK   12  A    between atoms: O5_25  and  C21_26
REMARK                            x       y       z     vdW  Elec       q    Type
REMARK                         _______ _______ _______ _____ _____    ______ ____
ROOT
ATOM      1  C11 UNL     1       7.377  47.306  29.956  0.00  0.00    +0.000 C 
ENDROOT
BRANCH   1   2
ATOM      2  C10 UNL     1       7.535  48.294  31.078  0.00  0.00    +0.000 C 
ATOM      3  O2  UNL     1       6.723  48.268  32.041  0.00  0.00    +0.000 OA
BRANCH   2   5
ATOM      4  C8  UNL     1       8.964  50.010  32.124  0.00  0.00    +0.000 C 
ATOM      5  C9  UNL     1       8.657  49.253  31.063  0.00  0.00    +0.000 C 
BRANCH   4  11
ATOM      6  C2  UNL     1      10.501  51.657  33.294  0.00  0.00    +0.000 A 
ATOM      7  C3  UNL     1      11.595  52.544  33.223  0.00  0.00    +0.000 A 
ATOM      8  C4  UNL     1      12.307  52.702  32.028  0.00  0.00    +0.000 A 
ATOM      9  C5  UNL     1      11.937  51.973  30.897  0.00  0.00    +0.000 A 
ATOM     10  C6  UNL     1      10.851  51.099  30.951  0.00  0.00    +0.000 A 
ATOM     11  C7  UNL     1      10.109  50.949  32.133  0.00  0.00    +0.000 A 
BRANCH   6  13
ATOM     12  C1  UNL     1      10.002  52.195  35.691  0.00  0.00    +0.000 C 
ATOM     13  O1  UNL     1       9.813  51.439  34.500  0.00  0.00    +0.000 OA
ENDBRANCH   6  13
BRANCH   8  14
ATOM     14  O6  UNL     1      13.390  53.575  31.957  0.00  0.00    +0.000 OA
ATOM     15  H20 UNL     1      13.327  54.528  32.296  0.00  0.00    +0.000 HD
ENDBRANCH   8  14
ENDBRANCH   4  11
ENDBRANCH   2   5
ENDBRANCH   1   2
BRANCH   1  16
ATOM     16  C12 UNL     1       6.738  46.014  30.409  0.00  0.00    +0.000 C 
ATOM     17  O3  UNL     1       5.901  45.430  29.669  0.00  0.00    +0.000 OA
BRANCH  16  18
ATOM     18  C13 UNL     1       7.063  45.395  31.713  0.00  0.00    +0.000 C 
ATOM     19  C14 UNL     1       8.318  45.186  32.139  0.00  0.00    +0.000 C 
BRANCH  19  20
ATOM     20  C15 UNL     1       8.646  44.577  33.451  0.00  0.00    +0.000 A 
ATOM     21  C16 UNL     1       8.782  45.342  34.628  0.00  0.00    +0.000 A 
ATOM     22  C17 UNL     1       9.084  44.723  35.856  0.00  0.00    +0.000 A 
ATOM     23  C18 UNL     1       9.239  43.331  35.905  0.00  0.00    +0.000 A 
ATOM     24  C19 UNL     1       9.086  42.566  34.744  0.00  0.00    +0.000 A 
ATOM     25  C20 UNL     1       8.786  43.183  33.528  0.00  0.00    +0.000 A 
BRANCH  23  26
ATOM     26  O4  UNL     1       9.540  42.713  37.118  0.00  0.00    +0.000 OA
ATOM     27  H16 UNL     1       8.866  42.674  37.876  0.00  0.00    +0.000 HD
ENDBRANCH  23  26
BRANCH  22  28
ATOM     28  O5  UNL     1       9.234  45.453  37.047  0.00  0.00    +0.000 OA
ATOM     29  C21 UNL     1       9.294  46.873  37.120  0.00  0.00    +0.000 C 
ENDBRANCH  22  28
ENDBRANCH  19  20
ENDBRANCH  16  18
ENDBRANCH   1  16
TORSDOF 10
ENDMDL
MODEL 9
REMARK VINA RESULT:      -4.1      1.925      5.315
REMARK  Name = .\curcumin.pdb
REMARK  12 active torsions:
REMARK  status: ('A' for Active; 'I' for Inactive)
REMARK    1  A    between atoms: C1_1  and  O1_2
REMARK    2  A    between atoms: O1_2  and  C2_3
REMARK    3  A    between atoms: C4_5  and  O6_27
REMARK    4  A    between atoms: C7_8  and  C8_9
REMARK    5  A    between atoms: C9_10  and  C10_11
REMARK    6  A    between atoms: C10_11  and  C11_13
REMARK    7  A    between atoms: C11_13  and  C12_14
REMARK    8  A    between atoms: C12_14  and  C13_16
REMARK    9  A    between atoms: C14_17  and  C15_18
REMARK   10  A    between atoms: C17_20  and  O5_25
REMARK   11  A    between atoms: C18_21  and  O4_24
REMARK   12  A    between atoms: O5_25  and  C21_26
REMARK                            x       y       z     vdW  Elec       q    Type
REMARK                         _______ _______ _______ _____ _____    ______ ____
ROOT
ATOM      1  C11 UNL     1       9.429  46.012  37.120  0.00  0.00    +0.000 C 
ENDROOT
BRANCH   1   2
ATOM      2  C10 UNL     1       8.929  47.382  36.758  0.00  0.00    +0.000 C 
ATOM      3  O2  UNL     1       7.772  47.731  37.116  0.00  0.00    +0.000 OA
BRANCH   2   5
ATOM      4  C8  UNL     1       9.331  49.403  35.402  0.00  0.00    +0.000 C 
ATOM      5  C9  UNL     1       9.806  48.318  36.027  0.00  0.00    +0.000 C 
BRANCH   4  11
ATOM      6  C2  UNL     1      10.327  51.718  35.101  0.00  0.00    +0.000 A 
ATOM      7  C3  UNL     1      11.170  52.582  34.371  0.00  0.00    +0.000 A 
ATOM      8  C4  UNL     1      11.904  52.105  33.278  0.00  0.00    +0.000 A 
ATOM      9  C5  UNL     1      11.806  50.763  32.908  0.00  0.00    +0.000 A 
ATOM     10  C6  UNL     1      10.969  49.900  33.615  0.00  0.00    +0.000 A 
ATOM     11  C7  UNL     1      10.205  50.368  34.696  0.00  0.00    +0.000 A 
BRANCH   6  13
ATOM     12  C1  UNL     1       9.959  53.328  36.987  0.00  0.00    +0.000 C 
ATOM     13  O1  UNL     1       9.630  52.163  36.237  0.00  0.00    +0.000 OA
ENDBRANCH   6  13
BRANCH   8  14
ATOM     14  O6  UNL     1      12.740  52.956  32.558  0.00  0.00    +0.000 OA
ATOM     15  H20 UNL     1      12.489  53.922  32.382  0.00  0.00    +0.000 HD
ENDBRANCH   8  14
ENDBRANCH   4  11
ENDBRANCH   2   5
ENDBRANCH   1   2
BRANCH   1  16
ATOM     16  C12 UNL     1       9.007  44.960  36.120  0.00  0.00    +0.000 C 
ATOM     17  O3  UNL     1       9.199  43.740  36.369  0.00  0.00    +0.000 OA
BRANCH  16  18
ATOM     18  C13 UNL     1       8.364  45.315  34.835  0.00  0.00    +0.000 C 
ATOM     19  C14 UNL     1       8.990  45.991  33.859  0.00  0.00    +0.000 C 
BRANCH  19  20
ATOM     20  C15 UNL     1       8.352  46.337  32.565  0.00  0.00    +0.000 A 
ATOM     21  C16 UNL     1       8.378  47.643  32.034  0.00  0.00    +0.000 A 
ATOM     22  C17 UNL     1       7.768  47.926  30.796  0.00  0.00    +0.000 A 
ATOM     23  C18 UNL     1       7.142  46.894  30.084  0.00  0.00    +0.000 A 
ATOM     24  C19 UNL     1       7.130  45.593  30.600  0.00  0.00    +0.000 A 
ATOM     25  C20 UNL     1       7.736  45.315  31.827  0.00  0.00    +0.000 A 
BRANCH  23  26
ATOM     26  O4  UNL     1       6.536  47.170  28.860  0.00  0.00    +0.000 OA
ATOM     27  H16 UNL     1       6.221  46.428  28.244  0.00  0.00    +0.000 HD
ENDBRANCH  23  26
BRANCH  22  28
ATOM     28  O5  UNL     1       7.768  49.216  30.238  0.00  0.00    +0.000 OA
ATOM     29  C21 UNL     1       7.762  50.422  30.995  0.00  0.00    +0.000 C 
ENDBRANCH  22  28
ENDBRANCH  19  20
ENDBRANCH  16  18
ENDBRANCH   1  16
TORSDOF 10
ENDMDL
