MODEL 1
REMARK VINA RESULT:      -4.3      0.000      0.000
REMARK  Name = .\curcumin.pdb
REMARK  12 active torsions:
REMARK  status: ('A' for Active; 'I' for Inactive)
REMARK    1  A    between atoms: C1_1  and  O1_2
REMARK    2  A    between atoms: O1_2  and  C2_3
REMARK    3  A    between atoms: C4_5  and  O6_27
REMARK    4  A    between atoms: C7_8  and  C8_9
REMARK    5  A    between atoms: C9_10  and  C10_11
REMARK    6  A    between atoms: C10_11  and  C11_13
REMARK    7  A    between atoms: C11_13  and  C12_14
REMARK    8  A    between atoms: C12_14  and  C13_16
REMARK    9  A    between atoms: C14_17  and  C15_18
REMARK   10  A    between atoms: C17_20  and  O5_25
REMARK   11  A    between atoms: C18_21  and  O4_24
REMARK   12  A    between atoms: O5_25  and  C21_26
REMARK                            x       y       z     vdW  Elec       q    Type
REMARK                         _______ _______ _______ _____ _____    ______ ____
ROOT
ATOM      1  C11 UNL     1     -15.504  79.473  64.661  0.00  0.00    +0.000 C 
ENDROOT
BRANCH   1   2
ATOM      2  C10 UNL     1     -16.744  78.624  64.632  0.00  0.00    +0.000 C 
ATOM      3  O2  UNL     1     -17.515  78.624  65.629  0.00  0.00    +0.000 OA
BRANCH   2   5
ATOM      4  C8  UNL     1     -16.367  76.748  63.076  0.00  0.00    +0.000 C 
ATOM      5  C9  UNL     1     -17.067  77.833  63.429  0.00  0.00    +0.000 C 
BRANCH   4  11
ATOM      6  C2  UNL     1     -15.924  75.938  60.711  0.00  0.00    +0.000 A 
ATOM      7  C3  UNL     1     -16.316  75.137  59.619  0.00  0.00    +0.000 A 
ATOM      8  C4  UNL     1     -17.445  74.313  59.709  0.00  0.00    +0.000 A 
ATOM      9  C5  UNL     1     -18.188  74.278  60.890  0.00  0.00    +0.000 A 
ATOM     10  C6  UNL     1     -17.817  75.073  61.974  0.00  0.00    +0.000 A 
ATOM     11  C7  UNL     1     -16.705  75.926  61.892  0.00  0.00    +0.000 A 
BRANCH   6  13
ATOM     12  C1  UNL     1     -14.548  77.805  59.760  0.00  0.00    +0.000 C 
ATOM     13  O1  UNL     1     -14.761  76.724  60.662  0.00  0.00    +0.000 OA
ENDBRANCH   6  13
BRANCH   8  14
ATOM     14  O6  UNL     1     -17.831  73.518  58.631  0.00  0.00    +0.000 OA
ATOM     15  H20 UNL     1     -17.387  73.601  57.724  0.00  0.00    +0.000 HD
ENDBRANCH   8  14
ENDBRANCH   4  11
ENDBRANCH   2   5
ENDBRANCH   1   2
BRANCH   1  16
ATOM     16  C12 UNL     1     -15.393  80.374  63.453  0.00  0.00    +0.000 C 
ATOM     17  O3  UNL     1     -15.155  79.881  62.318  0.00  0.00    +0.000 OA
BRANCH  16  18
ATOM     18  C13 UNL     1     -15.555  81.841  63.553  0.00  0.00    +0.000 C 
ATOM     19  C14 UNL     1     -16.611  82.503  63.055  0.00  0.00    +0.000 C 
BRANCH  19  20
ATOM     20  C15 UNL     1     -16.781  83.973  63.164  0.00  0.00    +0.000 A 
ATOM     21  C16 UNL     1     -16.001  84.762  64.034  0.00  0.00    +0.000 A 
ATOM     22  C17 UNL     1     -16.188  86.157  64.100  0.00  0.00    +0.000 A 
ATOM     23  C18 UNL     1     -17.153  86.761  63.281  0.00  0.00    +0.000 A 
ATOM     24  C19 UNL     1     -17.916  85.983  62.404  0.00  0.00    +0.000 A 
ATOM     25  C20 UNL     1     -17.727  84.601  62.341  0.00  0.00    +0.000 A 
BRANCH  23  26
ATOM     26  O4  UNL     1     -17.343  88.140  63.344  0.00  0.00    +0.000 OA
ATOM     27  H16 UNL     1     -16.764  88.731  63.932  0.00  0.00    +0.000 HD
ENDBRANCH  23  26
BRANCH  22  28
ATOM     28  O5  UNL     1     -15.436  86.975  64.958  0.00  0.00    +0.000 OA
ATOM     29  C21 UNL     1     -14.016  87.074  64.939  0.00  0.00    +0.000 C 
ENDBRANCH  22  28
ENDBRANCH  19  20
ENDBRANCH  16  18
ENDBRANCH   1  16
TORSDOF 10
ENDMDL
MODEL 2
REMARK VINA RESULT:      -3.8      1.272      1.974
REMARK  Name = .\curcumin.pdb
REMARK  12 active torsions:
REMARK  status: ('A' for Active; 'I' for Inactive)
REMARK    1  A    between atoms: C1_1  and  O1_2
REMARK    2  A    between atoms: O1_2  and  C2_3
REMARK    3  A    between atoms: C4_5  and  O6_27
REMARK    4  A    between atoms: C7_8  and  C8_9
REMARK    5  A    between atoms: C9_10  and  C10_11
REMARK    6  A    between atoms: C10_11  and  C11_13
REMARK    7  A    between atoms: C11_13  and  C12_14
REMARK    8  A    between atoms: C12_14  and  C13_16
REMARK    9  A    between atoms: C14_17  and  C15_18
REMARK   10  A    between atoms: C17_20  and  O5_25
REMARK   11  A    between atoms: C18_21  and  O4_24
REMARK   12  A    between atoms: O5_25  and  C21_26
REMARK                            x       y       z     vdW  Elec       q    Type
REMARK                         _______ _______ _______ _____ _____    ______ ____
ROOT
ATOM      1  C11 UNL     1     -15.975  79.486  65.021  0.00  0.00    +0.000 C 
ENDROOT
BRANCH   1   2
ATOM      2  C10 UNL     1     -17.043  78.431  64.939  0.00  0.00    +0.000 C 
ATOM      3  O2  UNL     1     -17.804  78.245  65.926  0.00  0.00    +0.000 OA
BRANCH   2   5
ATOM      4  C8  UNL     1     -16.677  76.442  63.528  0.00  0.00    +0.000 C 
ATOM      5  C9  UNL     1     -17.218  77.655  63.696  0.00  0.00    +0.000 C 
BRANCH   4  11
ATOM      6  C2  UNL     1     -17.155  74.251  62.337  0.00  0.00    +0.000 A 
ATOM      7  C3  UNL     1     -17.320  73.550  61.125  0.00  0.00    +0.000 A 
ATOM      8  C4  UNL     1     -17.241  74.220  59.898  0.00  0.00    +0.000 A 
ATOM      9  C5  UNL     1     -17.002  75.595  59.871  0.00  0.00    +0.000 A 
ATOM     10  C6  UNL     1     -16.828  76.300  61.062  0.00  0.00    +0.000 A 
ATOM     11  C7  UNL     1     -16.876  75.638  62.300  0.00  0.00    +0.000 A 
BRANCH   6  13
ATOM     12  C1  UNL     1     -18.440  73.693  64.416  0.00  0.00    +0.000 C 
ATOM     13  O1  UNL     1     -17.291  73.608  63.579  0.00  0.00    +0.000 OA
ENDBRANCH   6  13
BRANCH   8  14
ATOM     14  O6  UNL     1     -17.407  73.529  58.699  0.00  0.00    +0.000 OA
ATOM     15  H20 UNL     1     -17.077  73.906  57.819  0.00  0.00    +0.000 HD
ENDBRANCH   8  14
ENDBRANCH   4  11
ENDBRANCH   2   5
ENDBRANCH   1   2
BRANCH   1  16
ATOM     16  C12 UNL     1     -15.807  80.240  63.722  0.00  0.00    +0.000 C 
ATOM     17  O3  UNL     1     -15.541  79.615  62.660  0.00  0.00    +0.000 OA
BRANCH  16  18
ATOM     18  C13 UNL     1     -15.944  81.711  63.648  0.00  0.00    +0.000 C 
ATOM     19  C14 UNL     1     -16.852  82.330  62.877  0.00  0.00    +0.000 C 
BRANCH  19  20
ATOM     20  C15 UNL     1     -16.999  83.805  62.810  0.00  0.00    +0.000 A 
ATOM     21  C16 UNL     1     -16.205  84.680  63.579  0.00  0.00    +0.000 A 
ATOM     22  C17 UNL     1     -16.370  86.076  63.477  0.00  0.00    +0.000 A 
ATOM     23  C18 UNL     1     -17.327  86.592  62.593  0.00  0.00    +0.000 A 
ATOM     24  C19 UNL     1     -18.105  85.727  61.815  0.00  0.00    +0.000 A 
ATOM     25  C20 UNL     1     -17.938  84.345  61.918  0.00  0.00    +0.000 A 
BRANCH  23  26
ATOM     26  O4  UNL     1     -17.496  87.972  62.490  0.00  0.00    +0.000 OA
ATOM     27  H16 UNL     1     -17.051  88.508  61.753  0.00  0.00    +0.000 HD
ENDBRANCH  23  26
BRANCH  22  28
ATOM     28  O5  UNL     1     -15.603  86.978  64.231  0.00  0.00    +0.000 OA
ATOM     29  C21 UNL     1     -14.222  86.808  64.533  0.00  0.00    +0.000 C 
ENDBRANCH  22  28
ENDBRANCH  19  20
ENDBRANCH  16  18
ENDBRANCH   1  16
TORSDOF 10
ENDMDL
MODEL 3
REMARK VINA RESULT:      -3.2      3.200      5.257
REMARK  Name = .\curcumin.pdb
REMARK  12 active torsions:
REMARK  status: ('A' for Active; 'I' for Inactive)
REMARK    1  A    between atoms: C1_1  and  O1_2
REMARK    2  A    between atoms: O1_2  and  C2_3
REMARK    3  A    between atoms: C4_5  and  O6_27
REMARK    4  A    between atoms: C7_8  and  C8_9
REMARK    5  A    between atoms: C9_10  and  C10_11
REMARK    6  A    between atoms: C10_11  and  C11_13
REMARK    7  A    between atoms: C11_13  and  C12_14
REMARK    8  A    between atoms: C12_14  and  C13_16
REMARK    9  A    between atoms: C14_17  and  C15_18
REMARK   10  A    between atoms: C17_20  and  O5_25
REMARK   11  A    between atoms: C18_21  and  O4_24
REMARK   12  A    between atoms: O5_25  and  C21_26
REMARK                            x       y       z     vdW  Elec       q    Type
REMARK                         _______ _______ _______ _____ _____    ______ ____
ROOT
ATOM      1  C11 UNL     1     -15.498  78.402  58.451  0.00  0.00    +0.000 C 
ENDROOT
BRANCH   1   2
ATOM      2  C10 UNL     1     -15.095  77.048  58.965  0.00  0.00    +0.000 C 
ATOM      3  O2  UNL     1     -14.047  76.506  58.522  0.00  0.00    +0.000 OA
BRANCH   2   5
ATOM      4  C8  UNL     1     -15.350  75.818  61.088  0.00  0.00    +0.000 C 
ATOM      5  C9  UNL     1     -15.903  76.385  60.008  0.00  0.00    +0.000 C 
BRANCH   4  11
ATOM      6  C2  UNL     1     -16.999  74.074  61.917  0.00  0.00    +0.000 A 
ATOM      7  C3  UNL     1     -17.741  73.530  62.985  0.00  0.00    +0.000 A 
ATOM      8  C4  UNL     1     -17.621  74.057  64.277  0.00  0.00    +0.000 A 
ATOM      9  C5  UNL     1     -16.756  75.126  64.514  0.00  0.00    +0.000 A 
ATOM     10  C6  UNL     1     -16.022  75.680  63.465  0.00  0.00    +0.000 A 
ATOM     11  C7  UNL     1     -16.152  75.182  62.158  0.00  0.00    +0.000 A 
BRANCH   6  13
ATOM     12  C1  UNL     1     -18.212  73.534  59.791  0.00  0.00    +0.000 C 
ATOM     13  O1  UNL     1     -17.059  73.521  60.627  0.00  0.00    +0.000 OA
ENDBRANCH   6  13
BRANCH   8  14
ATOM     14  O6  UNL     1     -18.352  73.518  65.334  0.00  0.00    +0.000 OA
ATOM     15  H20 UNL     1     -18.834  74.108  66.002  0.00  0.00    +0.000 HD
ENDBRANCH   8  14
ENDBRANCH   4  11
ENDBRANCH   2   5
ENDBRANCH   1   2
BRANCH   1  16
ATOM     16  C12 UNL     1     -16.932  78.743  58.785  0.00  0.00    +0.000 C 
ATOM     17  O3  UNL     1     -17.842  78.547  57.935  0.00  0.00    +0.000 OA
BRANCH  16  18
ATOM     18  C13 UNL     1     -17.317  79.309  60.096  0.00  0.00    +0.000 C 
ATOM     19  C14 UNL     1     -16.447  79.511  61.098  0.00  0.00    +0.000 C 
BRANCH  19  20
ATOM     20  C15 UNL     1     -16.828  80.089  62.409  0.00  0.00    +0.000 A 
ATOM     21  C16 UNL     1     -16.397  79.538  63.634  0.00  0.00    +0.000 A 
ATOM     22  C17 UNL     1     -16.773  80.126  64.858  0.00  0.00    +0.000 A 
ATOM     23  C18 UNL     1     -17.574  81.276  64.851  0.00  0.00    +0.000 A 
ATOM     24  C19 UNL     1     -17.989  81.836  63.638  0.00  0.00    +0.000 A 
ATOM     25  C20 UNL     1     -17.613  81.252  62.427  0.00  0.00    +0.000 A 
BRANCH  23  26
ATOM     26  O4  UNL     1     -17.951  81.859  66.059  0.00  0.00    +0.000 OA
ATOM     27  H16 UNL     1     -18.418  81.325  66.785  0.00  0.00    +0.000 HD
ENDBRANCH  23  26
BRANCH  22  28
ATOM     28  O5  UNL     1     -16.370  79.601  66.096  0.00  0.00    +0.000 OA
ATOM     29  C21 UNL     1     -16.709  78.303  66.572  0.00  0.00    +0.000 C 
ENDBRANCH  22  28
ENDBRANCH  19  20
ENDBRANCH  16  18
ENDBRANCH   1  16
TORSDOF 10
ENDMDL
MODEL 4
REMARK VINA RESULT:      -3.0      1.835      3.168
REMARK  Name = .\curcumin.pdb
REMARK  12 active torsions:
REMARK  status: ('A' for Active; 'I' for Inactive)
REMARK    1  A    between atoms: C1_1  and  O1_2
REMARK    2  A    between atoms: O1_2  and  C2_3
REMARK    3  A    between atoms: C4_5  and  O6_27
REMARK    4  A    between atoms: C7_8  and  C8_9
REMARK    5  A    between atoms: C9_10  and  C10_11
REMARK    6  A    between atoms: C10_11  and  C11_13
REMARK    7  A    between atoms: C11_13  and  C12_14
REMARK    8  A    between atoms: C12_14  and  C13_16
REMARK    9  A    between atoms: C14_17  and  C15_18
REMARK   10  A    between atoms: C17_20  and  O5_25
REMARK   11  A    between atoms: C18_21  and  O4_24
REMARK   12  A    between atoms: O5_25  and  C21_26
REMARK                            x       y       z     vdW  Elec       q    Type
REMARK                         _______ _______ _______ _____ _____    ______ ____
ROOT
ATOM      1  C11 UNL     1     -17.863  79.171  64.751  0.00  0.00    +0.000 C 
ENDROOT
BRANCH   1   2
ATOM      2  C10 UNL     1     -16.425  79.100  64.320  0.00  0.00    +0.000 C 
ATOM      3  O2  UNL     1     -15.529  79.549  65.084  0.00  0.00    +0.000 OA
BRANCH   2   5
ATOM      4  C8  UNL     1     -14.948  78.778  62.371  0.00  0.00    +0.000 C 
ATOM      5  C9  UNL     1     -16.071  78.472  63.032  0.00  0.00    +0.000 C 
BRANCH   4  11
ATOM      6  C2  UNL     1     -15.421  77.233  60.414  0.00  0.00    +0.000 A 
ATOM      7  C3  UNL     1     -14.981  76.643  59.210  0.00  0.00    +0.000 A 
ATOM      8  C4  UNL     1     -13.726  76.961  58.678  0.00  0.00    +0.000 A 
ATOM      9  C5  UNL     1     -12.902  77.874  59.339  0.00  0.00    +0.000 A 
ATOM     10  C6  UNL     1     -13.320  78.458  60.535  0.00  0.00    +0.000 A 
ATOM     11  C7  UNL     1     -14.564  78.128  61.097  0.00  0.00    +0.000 A 
BRANCH   6  13
ATOM     12  C1  UNL     1     -17.416  75.754  60.756  0.00  0.00    +0.000 C 
ATOM     13  O1  UNL     1     -16.701  76.973  60.931  0.00  0.00    +0.000 OA
ENDBRANCH   6  13
BRANCH   8  14
ATOM     14  O6  UNL     1     -13.292  76.382  57.488  0.00  0.00    +0.000 OA
ATOM     15  H20 UNL     1     -12.654  75.595  57.482  0.00  0.00    +0.000 HD
ENDBRANCH   8  14
ENDBRANCH   4  11
ENDBRANCH   2   5
ENDBRANCH   1   2
BRANCH   1  16
ATOM     16  C12 UNL     1     -18.225  80.517  65.335  0.00  0.00    +0.000 C 
ATOM     17  O3  UNL     1     -18.402  80.638  66.577  0.00  0.00    +0.000 OA
BRANCH  16  18
ATOM     18  C13 UNL     1     -18.383  81.721  64.490  0.00  0.00    +0.000 C 
ATOM     19  C14 UNL     1     -17.352  82.475  64.079  0.00  0.00    +0.000 C 
BRANCH  19  20
ATOM     20  C15 UNL     1     -17.506  83.675  63.222  0.00  0.00    +0.000 A 
ATOM     21  C16 UNL     1     -16.881  84.904  63.520  0.00  0.00    +0.000 A 
ATOM     22  C17 UNL     1     -17.046  86.017  62.672  0.00  0.00    +0.000 A 
ATOM     23  C18 UNL     1     -17.830  85.893  61.518  0.00  0.00    +0.000 A 
ATOM     24  C19 UNL     1     -18.437  84.671  61.209  0.00  0.00    +0.000 A 
ATOM     25  C20 UNL     1     -18.271  83.569  62.051  0.00  0.00    +0.000 A 
BRANCH  23  26
ATOM     26  O4  UNL     1     -17.998  86.992  60.677  0.00  0.00    +0.000 OA
ATOM     27  H16 UNL     1     -18.845  87.549  60.694  0.00  0.00    +0.000 HD
ENDBRANCH  23  26
BRANCH  22  28
ATOM     28  O5  UNL     1     -16.445  87.258  62.940  0.00  0.00    +0.000 OA
ATOM     29  C21 UNL     1     -16.836  88.134  63.993  0.00  0.00    +0.000 C 
ENDBRANCH  22  28
ENDBRANCH  19  20
ENDBRANCH  16  18
ENDBRANCH   1  16
TORSDOF 10
ENDMDL
MODEL 5
REMARK VINA RESULT:      -2.7      2.446      5.126
REMARK  Name = .\curcumin.pdb
REMARK  12 active torsions:
REMARK  status: ('A' for Active; 'I' for Inactive)
REMARK    1  A    between atoms: C1_1  and  O1_2
REMARK    2  A    between atoms: O1_2  and  C2_3
REMARK    3  A    between atoms: C4_5  and  O6_27
REMARK    4  A    between atoms: C7_8  and  C8_9
REMARK    5  A    between atoms: C9_10  and  C10_11
REMARK    6  A    between atoms: C10_11  and  C11_13
REMARK    7  A    between atoms: C11_13  and  C12_14
REMARK    8  A    between atoms: C12_14  and  C13_16
REMARK    9  A    between atoms: C14_17  and  C15_18
REMARK   10  A    between atoms: C17_20  and  O5_25
REMARK   11  A    between atoms: C18_21  and  O4_24
REMARK   12  A    between atoms: O5_25  and  C21_26
REMARK                            x       y       z     vdW  Elec       q    Type
REMARK                         _______ _______ _______ _____ _____    ______ ____
ROOT
ATOM      1  C11 UNL     1     -12.982  77.644  59.321  0.00  0.00    +0.000 C 
ENDROOT
BRANCH   1   2
ATOM      2  C10 UNL     1     -14.005  76.663  58.821  0.00  0.00    +0.000 C 
ATOM      3  O2  UNL     1     -13.975  76.302  57.614  0.00  0.00    +0.000 OA
BRANCH   2   5
ATOM      4  C8  UNL     1     -14.686  75.695  60.985  0.00  0.00    +0.000 C 
ATOM      5  C9  UNL     1     -15.005  76.102  59.750  0.00  0.00    +0.000 C 
BRANCH   4  11
ATOM      6  C2  UNL     1     -16.704  74.262  61.548  0.00  0.00    +0.000 A 
ATOM      7  C3  UNL     1     -17.630  73.810  62.511  0.00  0.00    +0.000 A 
ATOM      8  C4  UNL     1     -17.528  74.222  63.845  0.00  0.00    +0.000 A 
ATOM      9  C5  UNL     1     -16.500  75.084  64.230  0.00  0.00    +0.000 A 
ATOM     10  C6  UNL     1     -15.583  75.547  63.286  0.00  0.00    +0.000 A 
ATOM     11  C7  UNL     1     -15.687  75.165  61.939  0.00  0.00    +0.000 A 
BRANCH   6  13
ATOM     12  C1  UNL     1     -17.948  73.606  59.473  0.00  0.00    +0.000 C 
ATOM     13  O1  UNL     1     -16.752  73.812  60.218  0.00  0.00    +0.000 OA
ENDBRANCH   6  13
BRANCH   8  14
ATOM     14  O6  UNL     1     -18.440  73.774  64.799  0.00  0.00    +0.000 OA
ATOM     15  H20 UNL     1     -18.493  72.797  65.064  0.00  0.00    +0.000 HD
ENDBRANCH   8  14
ENDBRANCH   4  11
ENDBRANCH   2   5
ENDBRANCH   1   2
BRANCH   1  16
ATOM     16  C12 UNL     1     -13.551  79.033  59.495  0.00  0.00    +0.000 C 
ATOM     17  O3  UNL     1     -13.176  79.967  58.737  0.00  0.00    +0.000 OA
BRANCH  16  18
ATOM     18  C13 UNL     1     -14.550  79.345  60.541  0.00  0.00    +0.000 C 
ATOM     19  C14 UNL     1     -14.251  79.422  61.847  0.00  0.00    +0.000 C 
BRANCH  19  20
ATOM     20  C15 UNL     1     -15.249  79.747  62.897  0.00  0.00    +0.000 A 
ATOM     21  C16 UNL     1     -15.786  81.041  63.056  0.00  0.00    +0.000 A 
ATOM     22  C17 UNL     1     -16.739  81.304  64.059  0.00  0.00    +0.000 A 
ATOM     23  C18 UNL     1     -17.162  80.263  64.896  0.00  0.00    +0.000 A 
ATOM     24  C19 UNL     1     -16.645  78.973  64.730  0.00  0.00    +0.000 A 
ATOM     25  C20 UNL     1     -15.701  78.716  63.734  0.00  0.00    +0.000 A 
BRANCH  23  26
ATOM     26  O4  UNL     1     -18.103  80.519  65.892  0.00  0.00    +0.000 OA
ATOM     27  H16 UNL     1     -18.942  79.956  65.987  0.00  0.00    +0.000 HD
ENDBRANCH  23  26
BRANCH  22  28
ATOM     28  O5  UNL     1     -17.291  82.581  64.252  0.00  0.00    +0.000 OA
ATOM     29  C21 UNL     1     -16.632  83.802  63.929  0.00  0.00    +0.000 C 
ENDBRANCH  22  28
ENDBRANCH  19  20
ENDBRANCH  16  18
ENDBRANCH   1  16
TORSDOF 10
ENDMDL
MODEL 6
REMARK VINA RESULT:      -2.1      2.292      5.236
REMARK  Name = .\curcumin.pdb
REMARK  12 active torsions:
REMARK  status: ('A' for Active; 'I' for Inactive)
REMARK    1  A    between atoms: C1_1  and  O1_2
REMARK    2  A    between atoms: O1_2  and  C2_3
REMARK    3  A    between atoms: C4_5  and  O6_27
REMARK    4  A    between atoms: C7_8  and  C8_9
REMARK    5  A    between atoms: C9_10  and  C10_11
REMARK    6  A    between atoms: C10_11  and  C11_13
REMARK    7  A    between atoms: C11_13  and  C12_14
REMARK    8  A    between atoms: C12_14  and  C13_16
REMARK    9  A    between atoms: C14_17  and  C15_18
REMARK   10  A    between atoms: C17_20  and  O5_25
REMARK   11  A    between atoms: C18_21  and  O4_24
REMARK   12  A    between atoms: O5_25  and  C21_26
REMARK                            x       y       z     vdW  Elec       q    Type
REMARK                         _______ _______ _______ _____ _____    ______ ____
ROOT
ATOM      1  C11 UNL     1     -14.089  75.831  59.394  0.00  0.00    +0.000 C 
ENDROOT
BRANCH   1   2
ATOM      2  C10 UNL     1     -15.471  75.294  59.639  0.00  0.00    +0.000 C 
ATOM      3  O2  UNL     1     -15.978  74.493  58.809  0.00  0.00    +0.000 OA
BRANCH   2   5
ATOM      4  C8  UNL     1     -15.645  75.620  62.078  0.00  0.00    +0.000 C 
ATOM      5  C9  UNL     1     -16.204  75.676  60.863  0.00  0.00    +0.000 C 
BRANCH   4  11
ATOM      6  C2  UNL     1     -17.462  75.316  63.825  0.00  0.00    +0.000 A 
ATOM      7  C3  UNL     1     -18.099  75.779  64.995  0.00  0.00    +0.000 A 
ATOM      8  C4  UNL     1     -17.627  76.918  65.658  0.00  0.00    +0.000 A 
ATOM      9  C5  UNL     1     -16.514  77.600  65.163  0.00  0.00    +0.000 A 
ATOM     10  C6  UNL     1     -15.881  77.158  64.001  0.00  0.00    +0.000 A 
ATOM     11  C7  UNL     1     -16.358  76.034  63.308  0.00  0.00    +0.000 A 
BRANCH   6  13
ATOM     12  C1  UNL     1     -18.389  74.081  61.849  0.00  0.00    +0.000 C 
ATOM     13  O1  UNL     1     -17.883  74.141  63.179  0.00  0.00    +0.000 OA
ENDBRANCH   6  13
BRANCH   8  14
ATOM     14  O6  UNL     1     -18.252  77.375  66.817  0.00  0.00    +0.000 OA
ATOM     15  H20 UNL     1     -17.969  78.237  67.268  0.00  0.00    +0.000 HD
ENDBRANCH   8  14
ENDBRANCH   4  11
ENDBRANCH   2   5
ENDBRANCH   1   2
BRANCH   1  16
ATOM     16  C12 UNL     1     -14.058  77.341  59.334  0.00  0.00    +0.000 C 
ATOM     17  O3  UNL     1     -13.201  77.926  58.618  0.00  0.00    +0.000 OA
BRANCH  16  18
ATOM     18  C13 UNL     1     -15.011  78.175  60.098  0.00  0.00    +0.000 C 
ATOM     19  C14 UNL     1     -14.641  79.002  61.088  0.00  0.00    +0.000 C 
BRANCH  19  20
ATOM     20  C15 UNL     1     -15.594  79.848  61.847  0.00  0.00    +0.000 A 
ATOM     21  C16 UNL     1     -15.173  80.927  62.651  0.00  0.00    +0.000 A 
ATOM     22  C17 UNL     1     -16.113  81.713  63.347  0.00  0.00    +0.000 A 
ATOM     23  C18 UNL     1     -17.478  81.421  63.226  0.00  0.00    +0.000 A 
ATOM     24  C19 UNL     1     -17.901  80.362  62.415  0.00  0.00    +0.000 A 
ATOM     25  C20 UNL     1     -16.967  79.586  61.726  0.00  0.00    +0.000 A 
BRANCH  23  26
ATOM     26  O4  UNL     1     -18.412  82.194  63.915  0.00  0.00    +0.000 OA
ATOM     27  H16 UNL     1     -19.201  82.620  63.442  0.00  0.00    +0.000 HD
ENDBRANCH  23  26
BRANCH  22  28
ATOM     28  O5  UNL     1     -15.731  82.791  64.163  0.00  0.00    +0.000 OA
ATOM     29  C21 UNL     1     -15.934  84.162  63.835  0.00  0.00    +0.000 C 
ENDBRANCH  22  28
ENDBRANCH  19  20
ENDBRANCH  16  18
ENDBRANCH   1  16
TORSDOF 10
ENDMDL
MODEL 7
REMARK VINA RESULT:      -1.9      2.328      4.124
REMARK  Name = .\curcumin.pdb
REMARK  12 active torsions:
REMARK  status: ('A' for Active; 'I' for Inactive)
REMARK    1  A    between atoms: C1_1  and  O1_2
REMARK    2  A    between atoms: O1_2  and  C2_3
REMARK    3  A    between atoms: C4_5  and  O6_27
REMARK    4  A    between atoms: C7_8  and  C8_9
REMARK    5  A    between atoms: C9_10  and  C10_11
REMARK    6  A    between atoms: C10_11  and  C11_13
REMARK    7  A    between atoms: C11_13  and  C12_14
REMARK    8  A    between atoms: C12_14  and  C13_16
REMARK    9  A    between atoms: C14_17  and  C15_18
REMARK   10  A    between atoms: C17_20  and  O5_25
REMARK   11  A    between atoms: C18_21  and  O4_24
REMARK   12  A    between atoms: O5_25  and  C21_26
REMARK                            x       y       z     vdW  Elec       q    Type
REMARK                         _______ _______ _______ _____ _____    ______ ____
ROOT
ATOM      1  C11 UNL     1     -14.679  79.067  60.504  0.00  0.00    +0.000 C 
ENDROOT
BRANCH   1   2
ATOM      2  C10 UNL     1     -14.021  77.828  61.045  0.00  0.00    +0.000 C 
ATOM      3  O2  UNL     1     -12.798  77.628  60.814  0.00  0.00    +0.000 OA
BRANCH   2   5
ATOM      4  C8  UNL     1     -15.386  77.248  63.016  0.00  0.00    +0.000 C 
ATOM      5  C9  UNL     1     -14.797  76.882  61.870  0.00  0.00    +0.000 C 
BRANCH   4  11
ATOM      6  C2  UNL     1     -16.962  76.750  64.942  0.00  0.00    +0.000 A 
ATOM      7  C3  UNL     1     -17.700  75.802  65.681  0.00  0.00    +0.000 A 
ATOM      8  C4  UNL     1     -17.704  74.453  65.306  0.00  0.00    +0.000 A 
ATOM      9  C5  UNL     1     -16.977  74.040  64.188  0.00  0.00    +0.000 A 
ATOM     10  C6  UNL     1     -16.234  74.965  63.454  0.00  0.00    +0.000 A 
ATOM     11  C7  UNL     1     -16.197  76.317  63.833  0.00  0.00    +0.000 A 
BRANCH   6  13
ATOM     12  C1  UNL     1     -16.570  78.667  66.509  0.00  0.00    +0.000 C 
ATOM     13  O1  UNL     1     -16.994  78.116  65.266  0.00  0.00    +0.000 OA
ENDBRANCH   6  13
BRANCH   8  14
ATOM     14  O6  UNL     1     -18.436  73.516  66.032  0.00  0.00    +0.000 OA
ATOM     15  H20 UNL     1     -19.140  72.934  65.592  0.00  0.00    +0.000 HD
ENDBRANCH   8  14
ENDBRANCH   4  11
ENDBRANCH   2   5
ENDBRANCH   1   2
BRANCH   1  16
ATOM     16  C12 UNL     1     -16.157  79.118  60.814  0.00  0.00    +0.000 C 
ATOM     17  O3  UNL     1     -16.939  78.274  60.298  0.00  0.00    +0.000 OA
BRANCH  16  18
ATOM     18  C13 UNL     1     -16.733  80.139  61.715  0.00  0.00    +0.000 C 
ATOM     19  C14 UNL     1     -16.018  80.792  62.644  0.00  0.00    +0.000 C 
BRANCH  19  20
ATOM     20  C15 UNL     1     -16.591  81.826  63.542  0.00  0.00    +0.000 A 
ATOM     21  C16 UNL     1     -16.202  83.180  63.481  0.00  0.00    +0.000 A 
ATOM     22  C17 UNL     1     -16.780  84.132  64.345  0.00  0.00    +0.000 A 
ATOM     23  C18 UNL     1     -17.757  83.724  65.263  0.00  0.00    +0.000 A 
ATOM     24  C19 UNL     1     -18.159  82.384  65.313  0.00  0.00    +0.000 A 
ATOM     25  C20 UNL     1     -17.585  81.444  64.455  0.00  0.00    +0.000 A 
BRANCH  23  26
ATOM     26  O4  UNL     1     -18.330  84.661  66.121  0.00  0.00    +0.000 OA
ATOM     27  H16 UNL     1     -18.276  85.657  65.933  0.00  0.00    +0.000 HD
ENDBRANCH  23  26
BRANCH  22  28
ATOM     28  O5  UNL     1     -16.413  85.487  64.319  0.00  0.00    +0.000 OA
ATOM     29  C21 UNL     1     -15.074  85.959  64.210  0.00  0.00    +0.000 C 
ENDBRANCH  22  28
ENDBRANCH  19  20
ENDBRANCH  16  18
ENDBRANCH   1  16
TORSDOF 10
ENDMDL
