MODEL 1
REMARK VINA RESULT:      -5.3      0.000      0.000
REMARK  Name = .\curcumin.pdb
REMARK  12 active torsions:
REMARK  status: ('A' for Active; 'I' for Inactive)
REMARK    1  A    between atoms: C1_1  and  O1_2
REMARK    2  A    between atoms: O1_2  and  C2_3
REMARK    3  A    between atoms: C4_5  and  O6_27
REMARK    4  A    between atoms: C7_8  and  C8_9
REMARK    5  A    between atoms: C9_10  and  C10_11
REMARK    6  A    between atoms: C10_11  and  C11_13
REMARK    7  A    between atoms: C11_13  and  C12_14
REMARK    8  A    between atoms: C12_14  and  C13_16
REMARK    9  A    between atoms: C14_17  and  C15_18
REMARK   10  A    between atoms: C17_20  and  O5_25
REMARK   11  A    between atoms: C18_21  and  O4_24
REMARK   12  A    between atoms: O5_25  and  C21_26
REMARK                            x       y       z     vdW  Elec       q    Type
REMARK                         _______ _______ _______ _____ _____    ______ ____
ROOT
ATOM      1  C11 UNL     1      -8.214  68.607  16.710  0.00  0.00    +0.000 C 
ENDROOT
BRANCH   1   2
ATOM      2  C10 UNL     1      -7.540  68.135  15.452  0.00  0.00    +0.000 C 
ATOM      3  O2  UNL     1      -8.113  68.306  14.343  0.00  0.00    +0.000 OA
BRANCH   2   5
ATOM      4  C8  UNL     1      -5.687  67.049  16.665  0.00  0.00    +0.000 C 
ATOM      5  C9  UNL     1      -6.201  67.516  15.520  0.00  0.00    +0.000 C 
BRANCH   4  11
ATOM      6  C2  UNL     1      -4.086  65.162  16.101  0.00  0.00    +0.000 A 
ATOM      7  C3  UNL     1      -2.803  64.592  16.227  0.00  0.00    +0.000 A 
ATOM      8  C4  UNL     1      -1.799  65.250  16.949  0.00  0.00    +0.000 A 
ATOM      9  C5  UNL     1      -2.068  66.484  17.545  0.00  0.00    +0.000 A 
ATOM     10  C6  UNL     1      -3.336  67.054  17.436  0.00  0.00    +0.000 A 
ATOM     11  C7  UNL     1      -4.361  66.394  16.740  0.00  0.00    +0.000 A 
BRANCH   6  13
ATOM     12  C1  UNL     1      -6.012  63.581  15.821  0.00  0.00    +0.000 C 
ATOM     13  O1  UNL     1      -5.087  64.546  15.330  0.00  0.00    +0.000 OA
ENDBRANCH   6  13
BRANCH   8  14
ATOM     14  O6  UNL     1      -0.529  64.691  17.072  0.00  0.00    +0.000 OA
ATOM     15  H20 UNL     1      -0.143  64.087  16.356  0.00  0.00    +0.000 HD
ENDBRANCH   8  14
ENDBRANCH   4  11
ENDBRANCH   2   5
ENDBRANCH   1   2
BRANCH   1  16
ATOM     16  C12 UNL     1      -7.860  70.035  17.054  0.00  0.00    +0.000 C 
ATOM     17  O3  UNL     1      -8.277  70.980  16.331  0.00  0.00    +0.000 OA
BRANCH  16  18
ATOM     18  C13 UNL     1      -7.028  70.374  18.228  0.00  0.00    +0.000 C 
ATOM     19  C14 UNL     1      -5.729  70.053  18.330  0.00  0.00    +0.000 C 
BRANCH  19  20
ATOM     20  C15 UNL     1      -4.888  70.403  19.502  0.00  0.00    +0.000 A 
ATOM     21  C16 UNL     1      -3.533  70.027  19.600  0.00  0.00    +0.000 A 
ATOM     22  C17 UNL     1      -2.767  70.389  20.726  0.00  0.00    +0.000 A 
ATOM     23  C18 UNL     1      -3.361  71.139  21.750  0.00  0.00    +0.000 A 
ATOM     24  C19 UNL     1      -4.701  71.530  21.647  0.00  0.00    +0.000 A 
ATOM     25  C20 UNL     1      -5.457  71.170  20.530  0.00  0.00    +0.000 A 
BRANCH  23  26
ATOM     26  O4  UNL     1      -2.609  71.498  22.867  0.00  0.00    +0.000 OA
ATOM     27  H16 UNL     1      -2.632  72.440  23.242  0.00  0.00    +0.000 HD
ENDBRANCH  23  26
BRANCH  22  28
ATOM     28  O5  UNL     1      -1.417  70.027  20.862  0.00  0.00    +0.000 OA
ATOM     29  C21 UNL     1      -0.369  70.485  20.014  0.00  0.00    +0.000 C 
ENDBRANCH  22  28
ENDBRANCH  19  20
ENDBRANCH  16  18
ENDBRANCH   1  16
TORSDOF 10
ENDMDL
MODEL 2
REMARK VINA RESULT:      -5.0      2.317      5.004
REMARK  Name = .\curcumin.pdb
REMARK  12 active torsions:
REMARK  status: ('A' for Active; 'I' for Inactive)
REMARK    1  A    between atoms: C1_1  and  O1_2
REMARK    2  A    between atoms: O1_2  and  C2_3
REMARK    3  A    between atoms: C4_5  and  O6_27
REMARK    4  A    between atoms: C7_8  and  C8_9
REMARK    5  A    between atoms: C9_10  and  C10_11
REMARK    6  A    between atoms: C10_11  and  C11_13
REMARK    7  A    between atoms: C11_13  and  C12_14
REMARK    8  A    between atoms: C12_14  and  C13_16
REMARK    9  A    between atoms: C14_17  and  C15_18
REMARK   10  A    between atoms: C17_20  and  O5_25
REMARK   11  A    between atoms: C18_21  and  O4_24
REMARK   12  A    between atoms: O5_25  and  C21_26
REMARK                            x       y       z     vdW  Elec       q    Type
REMARK                         _______ _______ _______ _____ _____    ______ ____
ROOT
ATOM      1  C11 UNL     1      -0.527  67.249  16.239  0.00  0.00    +0.000 C 
ENDROOT
BRANCH   1   2
ATOM      2  C10 UNL     1      -1.446  67.199  15.050  0.00  0.00    +0.000 C 
ATOM      3  O2  UNL     1      -1.134  67.826  14.002  0.00  0.00    +0.000 OA
BRANCH   2   5
ATOM      4  C8  UNL     1      -3.610  66.568  16.051  0.00  0.00    +0.000 C 
ATOM      5  C9  UNL     1      -2.679  66.390  15.105  0.00  0.00    +0.000 C 
BRANCH   4  11
ATOM      6  C2  UNL     1      -6.106  66.362  16.465  0.00  0.00    +0.000 A 
ATOM      7  C3  UNL     1      -7.260  65.551  16.496  0.00  0.00    +0.000 A 
ATOM      8  C4  UNL     1      -7.191  64.200  16.134  0.00  0.00    +0.000 A 
ATOM      9  C5  UNL     1      -5.972  63.650  15.734  0.00  0.00    +0.000 A 
ATOM     10  C6  UNL     1      -4.821  64.437  15.708  0.00  0.00    +0.000 A 
ATOM     11  C7  UNL     1      -4.868  65.787  16.095  0.00  0.00    +0.000 A 
BRANCH   6  13
ATOM     12  C1  UNL     1      -7.275  68.579  16.478  0.00  0.00    +0.000 C 
ATOM     13  O1  UNL     1      -6.167  67.733  16.766  0.00  0.00    +0.000 OA
ENDBRANCH   6  13
BRANCH   8  14
ATOM     14  O6  UNL     1      -8.330  63.399  16.160  0.00  0.00    +0.000 OA
ATOM     15  H20 UNL     1      -8.280  62.411  16.380  0.00  0.00    +0.000 HD
ENDBRANCH   8  14
ENDBRANCH   4  11
ENDBRANCH   2   5
ENDBRANCH   1   2
BRANCH   1  16
ATOM     16  C12 UNL     1      -0.275  68.661  16.716  0.00  0.00    +0.000 C 
ATOM     17  O3  UNL     1       0.756  69.279  16.339  0.00  0.00    +0.000 OA
BRANCH  16  18
ATOM     18  C13 UNL     1      -1.210  69.358  17.625  0.00  0.00    +0.000 C 
ATOM     19  C14 UNL     1      -2.007  68.720  18.496  0.00  0.00    +0.000 C 
BRANCH  19  20
ATOM     20  C15 UNL     1      -2.937  69.418  19.419  0.00  0.00    +0.000 A 
ATOM     21  C16 UNL     1      -4.108  70.061  18.968  0.00  0.00    +0.000 A 
ATOM     22  C17 UNL     1      -4.969  70.703  19.880  0.00  0.00    +0.000 A 
ATOM     23  C18 UNL     1      -4.660  70.689  21.246  0.00  0.00    +0.000 A 
ATOM     24  C19 UNL     1      -3.508  70.036  21.699  0.00  0.00    +0.000 A 
ATOM     25  C20 UNL     1      -2.657  69.400  20.793  0.00  0.00    +0.000 A 
BRANCH  23  26
ATOM     26  O4  UNL     1      -5.507  71.325  22.151  0.00  0.00    +0.000 OA
ATOM     27  H16 UNL     1      -6.502  71.126  22.178  0.00  0.00    +0.000 HD
ENDBRANCH  23  26
BRANCH  22  28
ATOM     28  O5  UNL     1      -6.140  71.360  19.468  0.00  0.00    +0.000 OA
ATOM     29  C21 UNL     1      -7.437  70.773  19.466  0.00  0.00    +0.000 C 
ENDBRANCH  22  28
ENDBRANCH  19  20
ENDBRANCH  16  18
ENDBRANCH   1  16
TORSDOF 10
ENDMDL
MODEL 3
REMARK VINA RESULT:      -5.0      2.720      7.154
REMARK  Name = .\curcumin.pdb
REMARK  12 active torsions:
REMARK  status: ('A' for Active; 'I' for Inactive)
REMARK    1  A    between atoms: C1_1  and  O1_2
REMARK    2  A    between atoms: O1_2  and  C2_3
REMARK    3  A    between atoms: C4_5  and  O6_27
REMARK    4  A    between atoms: C7_8  and  C8_9
REMARK    5  A    between atoms: C9_10  and  C10_11
REMARK    6  A    between atoms: C10_11  and  C11_13
REMARK    7  A    between atoms: C11_13  and  C12_14
REMARK    8  A    between atoms: C12_14  and  C13_16
REMARK    9  A    between atoms: C14_17  and  C15_18
REMARK   10  A    between atoms: C17_20  and  O5_25
REMARK   11  A    between atoms: C18_21  and  O4_24
REMARK   12  A    between atoms: O5_25  and  C21_26
REMARK                            x       y       z     vdW  Elec       q    Type
REMARK                         _______ _______ _______ _____ _____    ______ ____
ROOT
ATOM      1  C11 UNL     1      -2.712  69.700  18.031  0.00  0.00    +0.000 C 
ENDROOT
BRANCH   1   2
ATOM      2  C10 UNL     1      -3.067  68.465  18.809  0.00  0.00    +0.000 C 
ATOM      3  O2  UNL     1      -2.743  68.386  20.025  0.00  0.00    +0.000 OA
BRANCH   2   5
ATOM      4  C8  UNL     1      -4.490  67.554  17.012  0.00  0.00    +0.000 C 
ATOM      5  C9  UNL     1      -3.825  67.377  18.160  0.00  0.00    +0.000 C 
BRANCH   4  11
ATOM      6  C2  UNL     1      -6.490  66.654  15.734  0.00  0.00    +0.000 A 
ATOM      7  C3  UNL     1      -7.133  65.562  15.116  0.00  0.00    +0.000 A 
ATOM      8  C4  UNL     1      -6.513  64.308  15.063  0.00  0.00    +0.000 A 
ATOM      9  C5  UNL     1      -5.246  64.135  15.623  0.00  0.00    +0.000 A 
ATOM     10  C6  UNL     1      -4.603  65.204  16.246  0.00  0.00    +0.000 A 
ATOM     11  C7  UNL     1      -5.222  66.462  16.332  0.00  0.00    +0.000 A 
BRANCH   6  13
ATOM     12  C1  UNL     1      -8.058  68.386  14.824  0.00  0.00    +0.000 C 
ATOM     13  O1  UNL     1      -7.069  67.935  15.743  0.00  0.00    +0.000 OA
ENDBRANCH   6  13
BRANCH   8  14
ATOM     14  O6  UNL     1      -7.145  63.228  14.449  0.00  0.00    +0.000 OA
ATOM     15  H20 UNL     1      -6.708  62.719  13.690  0.00  0.00    +0.000 HD
ENDBRANCH   8  14
ENDBRANCH   4  11
ENDBRANCH   2   5
ENDBRANCH   1   2
BRANCH   1  16
ATOM     16  C12 UNL     1      -1.309  69.645  17.469  0.00  0.00    +0.000 C 
ATOM     17  O3  UNL     1      -0.515  70.604  17.663  0.00  0.00    +0.000 OA
BRANCH  16  18
ATOM     18  C13 UNL     1      -0.824  68.488  16.687  0.00  0.00    +0.000 C 
ATOM     19  C14 UNL     1      -1.231  68.218  15.437  0.00  0.00    +0.000 C 
BRANCH  19  20
ATOM     20  C15 UNL     1      -0.736  67.065  14.645  0.00  0.00    +0.000 A 
ATOM     21  C16 UNL     1      -0.964  65.728  15.033  0.00  0.00    +0.000 A 
ATOM     22  C17 UNL     1      -0.486  64.662  14.247  0.00  0.00    +0.000 A 
ATOM     23  C18 UNL     1       0.212  64.938  13.063  0.00  0.00    +0.000 A 
ATOM     24  C19 UNL     1       0.423  66.263  12.666  0.00  0.00    +0.000 A 
ATOM     25  C20 UNL     1      -0.052  67.318  13.447  0.00  0.00    +0.000 A 
BRANCH  23  26
ATOM     26  O4  UNL     1       0.689  63.886  12.283  0.00  0.00    +0.000 OA
ATOM     27  H16 UNL     1       0.841  62.962  12.672  0.00  0.00    +0.000 HD
ENDBRANCH  23  26
BRANCH  22  28
ATOM     28  O5  UNL     1      -0.687  63.318  14.604  0.00  0.00    +0.000 OA
ATOM     29  C21 UNL     1       0.084  62.618  15.575  0.00  0.00    +0.000 C 
ENDBRANCH  22  28
ENDBRANCH  19  20
ENDBRANCH  16  18
ENDBRANCH   1  16
TORSDOF 10
ENDMDL
MODEL 4
REMARK VINA RESULT:      -4.9      2.604      6.608
REMARK  Name = .\curcumin.pdb
REMARK  12 active torsions:
REMARK  status: ('A' for Active; 'I' for Inactive)
REMARK    1  A    between atoms: C1_1  and  O1_2
REMARK    2  A    between atoms: O1_2  and  C2_3
REMARK    3  A    between atoms: C4_5  and  O6_27
REMARK    4  A    between atoms: C7_8  and  C8_9
REMARK    5  A    between atoms: C9_10  and  C10_11
REMARK    6  A    between atoms: C10_11  and  C11_13
REMARK    7  A    between atoms: C11_13  and  C12_14
REMARK    8  A    between atoms: C12_14  and  C13_16
REMARK    9  A    between atoms: C14_17  and  C15_18
REMARK   10  A    between atoms: C17_20  and  O5_25
REMARK   11  A    between atoms: C18_21  and  O4_24
REMARK   12  A    between atoms: O5_25  and  C21_26
REMARK                            x       y       z     vdW  Elec       q    Type
REMARK                         _______ _______ _______ _____ _____    ______ ____
ROOT
ATOM      1  C11 UNL     1      -1.518  69.060  18.780  0.00  0.00    +0.000 C 
ENDROOT
BRANCH   1   2
ATOM      2  C10 UNL     1      -1.098  69.303  17.357  0.00  0.00    +0.000 C 
ATOM      3  O2  UNL     1      -1.191  70.463  16.875  0.00  0.00    +0.000 OA
BRANCH   2   5
ATOM      4  C8  UNL     1      -1.278  67.528  15.654  0.00  0.00    +0.000 C 
ATOM      5  C9  UNL     1      -0.544  68.195  16.553  0.00  0.00    +0.000 C 
BRANCH   4  11
ATOM      6  C2  UNL     1      -0.545  65.122  15.302  0.00  0.00    +0.000 A 
ATOM      7  C3  UNL     1       0.000  64.142  14.448  0.00  0.00    +0.000 A 
ATOM      8  C4  UNL     1       0.333  64.455  13.125  0.00  0.00    +0.000 A 
ATOM      9  C5  UNL     1       0.120  65.747  12.642  0.00  0.00    +0.000 A 
ATOM     10  C6  UNL     1      -0.410  66.730  13.479  0.00  0.00    +0.000 A 
ATOM     11  C7  UNL     1      -0.724  66.440  14.816  0.00  0.00    +0.000 A 
BRANCH   6  13
ATOM     12  C1  UNL     1      -0.341  63.812  17.429  0.00  0.00    +0.000 C 
ATOM     13  O1  UNL     1      -0.942  64.812  16.614  0.00  0.00    +0.000 OA
ENDBRANCH   6  13
BRANCH   8  14
ATOM     14  O6  UNL     1       0.869  63.486  12.279  0.00  0.00    +0.000 OA
ATOM     15  H20 UNL     1       0.690  63.495  11.281  0.00  0.00    +0.000 HD
ENDBRANCH   8  14
ENDBRANCH   4  11
ENDBRANCH   2   5
ENDBRANCH   1   2
BRANCH   1  16
ATOM     16  C12 UNL     1      -3.020  68.997  18.935  0.00  0.00    +0.000 C 
ATOM     17  O3  UNL     1      -3.565  69.435  19.983  0.00  0.00    +0.000 OA
BRANCH  16  18
ATOM     18  C13 UNL     1      -3.893  68.429  17.884  0.00  0.00    +0.000 C 
ATOM     19  C14 UNL     1      -4.057  67.110  17.693  0.00  0.00    +0.000 C 
BRANCH  19  20
ATOM     20  C15 UNL     1      -4.941  66.538  16.648  0.00  0.00    +0.000 A 
ATOM     21  C16 UNL     1      -6.041  67.244  16.118  0.00  0.00    +0.000 A 
ATOM     22  C17 UNL     1      -6.849  66.667  15.118  0.00  0.00    +0.000 A 
ATOM     23  C18 UNL     1      -6.544  65.385  14.641  0.00  0.00    +0.000 A 
ATOM     24  C19 UNL     1      -5.442  64.690  15.151  0.00  0.00    +0.000 A 
ATOM     25  C20 UNL     1      -4.643  65.264  16.142  0.00  0.00    +0.000 A 
BRANCH  23  26
ATOM     26  O4  UNL     1      -7.342  64.810  13.654  0.00  0.00    +0.000 OA
ATOM     27  H16 UNL     1      -8.125  64.209  13.886  0.00  0.00    +0.000 HD
ENDBRANCH  23  26
BRANCH  22  28
ATOM     28  O5  UNL     1      -7.957  67.336  14.572  0.00  0.00    +0.000 OA
ATOM     29  C21 UNL     1      -8.226  68.724  14.742  0.00  0.00    +0.000 C 
ENDBRANCH  22  28
ENDBRANCH  19  20
ENDBRANCH  16  18
ENDBRANCH   1  16
TORSDOF 10
ENDMDL
MODEL 5
REMARK VINA RESULT:      -4.8      2.130      4.958
REMARK  Name = .\curcumin.pdb
REMARK  12 active torsions:
REMARK  status: ('A' for Active; 'I' for Inactive)
REMARK    1  A    between atoms: C1_1  and  O1_2
REMARK    2  A    between atoms: O1_2  and  C2_3
REMARK    3  A    between atoms: C4_5  and  O6_27
REMARK    4  A    between atoms: C7_8  and  C8_9
REMARK    5  A    between atoms: C9_10  and  C10_11
REMARK    6  A    between atoms: C10_11  and  C11_13
REMARK    7  A    between atoms: C11_13  and  C12_14
REMARK    8  A    between atoms: C12_14  and  C13_16
REMARK    9  A    between atoms: C14_17  and  C15_18
REMARK   10  A    between atoms: C17_20  and  O5_25
REMARK   11  A    between atoms: C18_21  and  O4_24
REMARK   12  A    between atoms: O5_25  and  C21_26
REMARK                            x       y       z     vdW  Elec       q    Type
REMARK                         _______ _______ _______ _____ _____    ______ ____
ROOT
ATOM      1  C11 UNL     1      -0.386  69.432  17.800  0.00  0.00    +0.000 C 
ENDROOT
BRANCH   1   2
ATOM      2  C10 UNL     1      -0.557  68.774  16.459  0.00  0.00    +0.000 C 
ATOM      3  O2  UNL     1       0.371  68.852  15.610  0.00  0.00    +0.000 OA
BRANCH   2   5
ATOM      4  C8  UNL     1      -2.441  67.318  17.105  0.00  0.00    +0.000 C 
ATOM      5  C9  UNL     1      -1.786  68.011  16.164  0.00  0.00    +0.000 C 
BRANCH   4  11
ATOM      6  C2  UNL     1      -3.701  65.246  16.353  0.00  0.00    +0.000 A 
ATOM      7  C3  UNL     1      -4.935  64.611  16.102  0.00  0.00    +0.000 A 
ATOM      8  C4  UNL     1      -6.142  65.278  16.348  0.00  0.00    +0.000 A 
ATOM      9  C5  UNL     1      -6.127  66.579  16.852  0.00  0.00    +0.000 A 
ATOM     10  C6  UNL     1      -4.913  67.223  17.096  0.00  0.00    +0.000 A 
ATOM     11  C7  UNL     1      -3.694  66.579  16.829  0.00  0.00    +0.000 A 
BRANCH   6  13
ATOM     12  C1  UNL     1      -1.776  64.491  14.937  0.00  0.00    +0.000 C 
ATOM     13  O1  UNL     1      -2.481  64.573  16.171  0.00  0.00    +0.000 OA
ENDBRANCH   6  13
BRANCH   8  14
ATOM     14  O6  UNL     1      -7.362  64.651  16.103  0.00  0.00    +0.000 OA
ATOM     15  H20 UNL     1      -8.235  65.164  16.117  0.00  0.00    +0.000 HD
ENDBRANCH   8  14
ENDBRANCH   4  11
ENDBRANCH   2   5
ENDBRANCH   1   2
BRANCH   1  16
ATOM     16  C12 UNL     1      -1.097  70.763  17.884  0.00  0.00    +0.000 C 
ATOM     17  O3  UNL     1      -0.487  71.824  17.583  0.00  0.00    +0.000 OA
BRANCH  16  18
ATOM     18  C13 UNL     1      -2.508  70.872  18.315  0.00  0.00    +0.000 C 
ATOM     19  C14 UNL     1      -2.957  70.416  19.495  0.00  0.00    +0.000 C 
BRANCH  19  20
ATOM     20  C15 UNL     1      -4.369  70.535  19.935  0.00  0.00    +0.000 A 
ATOM     21  C16 UNL     1      -5.450  70.478  19.031  0.00  0.00    +0.000 A 
ATOM     22  C17 UNL     1      -6.777  70.584  19.492  0.00  0.00    +0.000 A 
ATOM     23  C18 UNL     1      -7.019  70.735  20.864  0.00  0.00    +0.000 A 
ATOM     24  C19 UNL     1      -5.949  70.773  21.765  0.00  0.00    +0.000 A 
ATOM     25  C20 UNL     1      -4.636  70.667  21.305  0.00  0.00    +0.000 A 
BRANCH  23  26
ATOM     26  O4  UNL     1      -8.330  70.843  21.325  0.00  0.00    +0.000 OA
ATOM     27  H16 UNL     1      -8.727  70.160  21.961  0.00  0.00    +0.000 HD
ENDBRANCH  23  26
BRANCH  22  28
ATOM     28  O5  UNL     1      -7.878  70.539  18.621  0.00  0.00    +0.000 OA
ATOM     29  C21 UNL     1      -7.908  69.818  17.394  0.00  0.00    +0.000 C 
ENDBRANCH  22  28
ENDBRANCH  19  20
ENDBRANCH  16  18
ENDBRANCH   1  16
TORSDOF 10
ENDMDL
MODEL 6
REMARK VINA RESULT:      -4.7      2.001      5.251
REMARK  Name = .\curcumin.pdb
REMARK  12 active torsions:
REMARK  status: ('A' for Active; 'I' for Inactive)
REMARK    1  A    between atoms: C1_1  and  O1_2
REMARK    2  A    between atoms: O1_2  and  C2_3
REMARK    3  A    between atoms: C4_5  and  O6_27
REMARK    4  A    between atoms: C7_8  and  C8_9
REMARK    5  A    between atoms: C9_10  and  C10_11
REMARK    6  A    between atoms: C10_11  and  C11_13
REMARK    7  A    between atoms: C11_13  and  C12_14
REMARK    8  A    between atoms: C12_14  and  C13_16
REMARK    9  A    between atoms: C14_17  and  C15_18
REMARK   10  A    between atoms: C17_20  and  O5_25
REMARK   11  A    between atoms: C18_21  and  O4_24
REMARK   12  A    between atoms: O5_25  and  C21_26
REMARK                            x       y       z     vdW  Elec       q    Type
REMARK                         _______ _______ _______ _____ _____    ______ ____
ROOT
ATOM      1  C11 UNL     1      -0.149  66.141  14.927  0.00  0.00    +0.000 C 
ENDROOT
BRANCH   1   2
ATOM      2  C10 UNL     1      -0.532  65.224  16.054  0.00  0.00    +0.000 C 
ATOM      3  O2  UNL     1       0.347  64.865  16.883  0.00  0.00    +0.000 OA
BRANCH   2   5
ATOM      4  C8  UNL     1      -2.967  65.563  15.856  0.00  0.00    +0.000 C 
ATOM      5  C9  UNL     1      -1.933  64.786  16.205  0.00  0.00    +0.000 C 
BRANCH   4  11
ATOM      6  C2  UNL     1      -5.409  65.983  16.406  0.00  0.00    +0.000 A 
ATOM      7  C3  UNL     1      -6.726  65.486  16.500  0.00  0.00    +0.000 A 
ATOM      8  C4  UNL     1      -7.017  64.166  16.135  0.00  0.00    +0.000 A 
ATOM      9  C5  UNL     1      -5.998  63.333  15.670  0.00  0.00    +0.000 A 
ATOM     10  C6  UNL     1      -4.690  63.808  15.581  0.00  0.00    +0.000 A 
ATOM     11  C7  UNL     1      -4.376  65.121  15.969  0.00  0.00    +0.000 A 
BRANCH   6  13
ATOM     12  C1  UNL     1      -6.074  68.320  17.023  0.00  0.00    +0.000 C 
ATOM     13  O1  UNL     1      -5.109  67.321  16.709  0.00  0.00    +0.000 OA
ENDBRANCH   6  13
BRANCH   8  14
ATOM     14  O6  UNL     1      -8.318  63.675  16.224  0.00  0.00    +0.000 OA
ATOM     15  H20 UNL     1      -9.090  64.128  15.749  0.00  0.00    +0.000 HD
ENDBRANCH   8  14
ENDBRANCH   4  11
ENDBRANCH   2   5
ENDBRANCH   1   2
BRANCH   1  16
ATOM     16  C12 UNL     1      -0.649  67.552  15.135  0.00  0.00    +0.000 C 
ATOM     17  O3  UNL     1      -1.094  68.214  14.159  0.00  0.00    +0.000 OA
BRANCH  16  18
ATOM     18  C13 UNL     1      -0.636  68.199  16.465  0.00  0.00    +0.000 C 
ATOM     19  C14 UNL     1      -1.745  68.427  17.186  0.00  0.00    +0.000 C 
BRANCH  19  20
ATOM     20  C15 UNL     1      -1.733  69.064  18.526  0.00  0.00    +0.000 A 
ATOM     21  C16 UNL     1      -2.860  69.063  19.374  0.00  0.00    +0.000 A 
ATOM     22  C17 UNL     1      -2.803  69.671  20.644  0.00  0.00    +0.000 A 
ATOM     23  C18 UNL     1      -1.608  70.270  21.067  0.00  0.00    +0.000 A 
ATOM     24  C19 UNL     1      -0.483  70.257  20.235  0.00  0.00    +0.000 A 
ATOM     25  C20 UNL     1      -0.543  69.653  18.978  0.00  0.00    +0.000 A 
BRANCH  23  26
ATOM     26  O4  UNL     1      -1.547  70.875  22.321  0.00  0.00    +0.000 OA
ATOM     27  H16 UNL     1      -1.572  70.329  23.176  0.00  0.00    +0.000 HD
ENDBRANCH  23  26
BRANCH  22  28
ATOM     28  O5  UNL     1      -3.906  69.696  21.513  0.00  0.00    +0.000 OA
ATOM     29  C21 UNL     1      -4.973  70.635  21.435  0.00  0.00    +0.000 C 
ENDBRANCH  22  28
ENDBRANCH  19  20
ENDBRANCH  16  18
ENDBRANCH   1  16
TORSDOF 10
ENDMDL
MODEL 7
REMARK VINA RESULT:      -4.6      1.657      2.661
REMARK  Name = .\curcumin.pdb
REMARK  12 active torsions:
REMARK  status: ('A' for Active; 'I' for Inactive)
REMARK    1  A    between atoms: C1_1  and  O1_2
REMARK    2  A    between atoms: O1_2  and  C2_3
REMARK    3  A    between atoms: C4_5  and  O6_27
REMARK    4  A    between atoms: C7_8  and  C8_9
REMARK    5  A    between atoms: C9_10  and  C10_11
REMARK    6  A    between atoms: C10_11  and  C11_13
REMARK    7  A    between atoms: C11_13  and  C12_14
REMARK    8  A    between atoms: C12_14  and  C13_16
REMARK    9  A    between atoms: C14_17  and  C15_18
REMARK   10  A    between atoms: C17_20  and  O5_25
REMARK   11  A    between atoms: C18_21  and  O4_24
REMARK   12  A    between atoms: O5_25  and  C21_26
REMARK                            x       y       z     vdW  Elec       q    Type
REMARK                         _______ _______ _______ _____ _____    ______ ____
ROOT
ATOM      1  C11 UNL     1      -7.869  66.754  15.927  0.00  0.00    +0.000 C 
ENDROOT
BRANCH   1   2
ATOM      2  C10 UNL     1      -7.154  65.935  14.888  0.00  0.00    +0.000 C 
ATOM      3  O2  UNL     1      -7.818  65.404  13.957  0.00  0.00    +0.000 OA
BRANCH   2   5
ATOM      4  C8  UNL     1      -5.035  65.532  16.083  0.00  0.00    +0.000 C 
ATOM      5  C9  UNL     1      -5.686  65.794  14.943  0.00  0.00    +0.000 C 
BRANCH   4  11
ATOM      6  C2  UNL     1      -2.751  66.065  17.055  0.00  0.00    +0.000 A 
ATOM      7  C3  UNL     1      -1.357  65.849  17.046  0.00  0.00    +0.000 A 
ATOM      8  C4  UNL     1      -0.786  64.918  16.168  0.00  0.00    +0.000 A 
ATOM      9  C5  UNL     1      -1.602  64.193  15.299  0.00  0.00    +0.000 A 
ATOM     10  C6  UNL     1      -2.981  64.403  15.290  0.00  0.00    +0.000 A 
ATOM     11  C7  UNL     1      -3.566  65.352  16.143  0.00  0.00    +0.000 A 
BRANCH   6  13
ATOM     12  C1  UNL     1      -2.836  68.232  18.311  0.00  0.00    +0.000 C 
ATOM     13  O1  UNL     1      -3.348  66.949  17.969  0.00  0.00    +0.000 OA
ENDBRANCH   6  13
BRANCH   8  14
ATOM     14  O6  UNL     1       0.590  64.702  16.161  0.00  0.00    +0.000 OA
ATOM     15  H20 UNL     1       1.246  65.446  16.364  0.00  0.00    +0.000 HD
ENDBRANCH   8  14
ENDBRANCH   4  11
ENDBRANCH   2   5
ENDBRANCH   1   2
BRANCH   1  16
ATOM     16  C12 UNL     1      -7.435  68.202  15.920  0.00  0.00    +0.000 C 
ATOM     17  O3  UNL     1      -7.564  68.894  14.874  0.00  0.00    +0.000 OA
BRANCH  16  18
ATOM     18  C13 UNL     1      -6.853  68.850  17.115  0.00  0.00    +0.000 C 
ATOM     19  C14 UNL     1      -7.501  69.771  17.845  0.00  0.00    +0.000 C 
BRANCH  19  20
ATOM     20  C15 UNL     1      -6.924  70.414  19.052  0.00  0.00    +0.000 A 
ATOM     21  C16 UNL     1      -5.536  70.463  19.292  0.00  0.00    +0.000 A 
ATOM     22  C17 UNL     1      -5.029  71.093  20.445  0.00  0.00    +0.000 A 
ATOM     23  C18 UNL     1      -5.918  71.685  21.353  0.00  0.00    +0.000 A 
ATOM     24  C19 UNL     1      -7.295  71.654  21.109  0.00  0.00    +0.000 A 
ATOM     25  C20 UNL     1      -7.794  71.029  19.964  0.00  0.00    +0.000 A 
BRANCH  23  26
ATOM     26  O4  UNL     1      -5.421  72.307  22.497  0.00  0.00    +0.000 OA
ATOM     27  H16 UNL     1      -5.556  73.299  22.663  0.00  0.00    +0.000 HD
ENDBRANCH  23  26
BRANCH  22  28
ATOM     28  O5  UNL     1      -3.653  71.156  20.722  0.00  0.00    +0.000 OA
ATOM     29  C21 UNL     1      -2.928  70.162  21.439  0.00  0.00    +0.000 C 
ENDBRANCH  22  28
ENDBRANCH  19  20
ENDBRANCH  16  18
ENDBRANCH   1  16
TORSDOF 10
ENDMDL
MODEL 8
REMARK VINA RESULT:      -4.6      3.018      6.675
REMARK  Name = .\curcumin.pdb
REMARK  12 active torsions:
REMARK  status: ('A' for Active; 'I' for Inactive)
REMARK    1  A    between atoms: C1_1  and  O1_2
REMARK    2  A    between atoms: O1_2  and  C2_3
REMARK    3  A    between atoms: C4_5  and  O6_27
REMARK    4  A    between atoms: C7_8  and  C8_9
REMARK    5  A    between atoms: C9_10  and  C10_11
REMARK    6  A    between atoms: C10_11  and  C11_13
REMARK    7  A    between atoms: C11_13  and  C12_14
REMARK    8  A    between atoms: C12_14  and  C13_16
REMARK    9  A    between atoms: C14_17  and  C15_18
REMARK   10  A    between atoms: C17_20  and  O5_25
REMARK   11  A    between atoms: C18_21  and  O4_24
REMARK   12  A    between atoms: O5_25  and  C21_26
REMARK                            x       y       z     vdW  Elec       q    Type
REMARK                         _______ _______ _______ _____ _____    ______ ____
ROOT
ATOM      1  C11 UNL     1      -1.424  69.162  19.095  0.00  0.00    +0.000 C 
ENDROOT
BRANCH   1   2
ATOM      2  C10 UNL     1      -1.326  69.373  17.610  0.00  0.00    +0.000 C 
ATOM      3  O2  UNL     1      -1.691  70.474  17.118  0.00  0.00    +0.000 OA
BRANCH   2   5
ATOM      4  C8  UNL     1      -1.411  67.861  15.663  0.00  0.00    +0.000 C 
ATOM      5  C9  UNL     1      -0.770  68.311  16.749  0.00  0.00    +0.000 C 
BRANCH   4  11
ATOM      6  C2  UNL     1      -0.358  67.115  13.476  0.00  0.00    +0.000 A 
ATOM      7  C3  UNL     1       0.154  66.070  12.680  0.00  0.00    +0.000 A 
ATOM      8  C4  UNL     1       0.210  64.761  13.174  0.00  0.00    +0.000 A 
ATOM      9  C5  UNL     1      -0.239  64.486  14.467  0.00  0.00    +0.000 A 
ATOM     10  C6  UNL     1      -0.757  65.509  15.262  0.00  0.00    +0.000 A 
ATOM     11  C7  UNL     1      -0.846  66.822  14.772  0.00  0.00    +0.000 A 
BRANCH   6  13
ATOM     12  C1  UNL     1       0.694  69.064  12.302  0.00  0.00    +0.000 C 
ATOM     13  O1  UNL     1      -0.367  68.445  13.022  0.00  0.00    +0.000 OA
ENDBRANCH   6  13
BRANCH   8  14
ATOM     14  O6  UNL     1       0.719  63.728  12.390  0.00  0.00    +0.000 OA
ATOM     15  H20 UNL     1       1.101  62.885  12.805  0.00  0.00    +0.000 HD
ENDBRANCH   8  14
ENDBRANCH   4  11
ENDBRANCH   2   5
ENDBRANCH   1   2
BRANCH   1  16
ATOM     16  C12 UNL     1      -2.681  68.423  19.492  0.00  0.00    +0.000 C 
ATOM     17  O3  UNL     1      -3.079  68.453  20.687  0.00  0.00    +0.000 OA
BRANCH  16  18
ATOM     18  C13 UNL     1      -3.478  67.652  18.513  0.00  0.00    +0.000 C 
ATOM     19  C14 UNL     1      -4.508  68.171  17.827  0.00  0.00    +0.000 C 
BRANCH  19  20
ATOM     20  C15 UNL     1      -5.301  67.403  16.835  0.00  0.00    +0.000 A 
ATOM     21  C16 UNL     1      -5.063  66.039  16.570  0.00  0.00    +0.000 A 
ATOM     22  C17 UNL     1      -5.847  65.344  15.628  0.00  0.00    +0.000 A 
ATOM     23  C18 UNL     1      -6.879  66.018  14.960  0.00  0.00    +0.000 A 
ATOM     24  C19 UNL     1      -7.130  67.367  15.235  0.00  0.00    +0.000 A 
ATOM     25  C20 UNL     1      -6.352  68.052  16.170  0.00  0.00    +0.000 A 
BRANCH  23  26
ATOM     26  O4  UNL     1      -7.656  65.336  14.026  0.00  0.00    +0.000 OA
ATOM     27  H16 UNL     1      -8.628  65.579  13.864  0.00  0.00    +0.000 HD
ENDBRANCH  23  26
BRANCH  22  28
ATOM     28  O5  UNL     1      -5.636  63.988  15.331  0.00  0.00    +0.000 OA
ATOM     29  C21 UNL     1      -6.353  62.911  15.925  0.00  0.00    +0.000 C 
ENDBRANCH  22  28
ENDBRANCH  19  20
ENDBRANCH  16  18
ENDBRANCH   1  16
TORSDOF 10
ENDMDL
MODEL 9
REMARK VINA RESULT:      -4.5      1.503      5.047
REMARK  Name = .\curcumin.pdb
REMARK  12 active torsions:
REMARK  status: ('A' for Active; 'I' for Inactive)
REMARK    1  A    between atoms: C1_1  and  O1_2
REMARK    2  A    between atoms: O1_2  and  C2_3
REMARK    3  A    between atoms: C4_5  and  O6_27
REMARK    4  A    between atoms: C7_8  and  C8_9
REMARK    5  A    between atoms: C9_10  and  C10_11
REMARK    6  A    between atoms: C10_11  and  C11_13
REMARK    7  A    between atoms: C11_13  and  C12_14
REMARK    8  A    between atoms: C12_14  and  C13_16
REMARK    9  A    between atoms: C14_17  and  C15_18
REMARK   10  A    between atoms: C17_20  and  O5_25
REMARK   11  A    between atoms: C18_21  and  O4_24
REMARK   12  A    between atoms: O5_25  and  C21_26
REMARK                            x       y       z     vdW  Elec       q    Type
REMARK                         _______ _______ _______ _____ _____    ______ ____
ROOT
ATOM      1  C11 UNL     1      -3.679  65.114  14.980  0.00  0.00    +0.000 C 
ENDROOT
BRANCH   1   2
ATOM      2  C10 UNL     1      -4.955  64.887  15.741  0.00  0.00    +0.000 C 
ATOM      3  O2  UNL     1      -5.485  63.743  15.730  0.00  0.00    +0.000 OA
BRANCH   2   5
ATOM      4  C8  UNL     1      -5.380  67.273  16.196  0.00  0.00    +0.000 C 
ATOM      5  C9  UNL     1      -5.553  65.987  16.523  0.00  0.00    +0.000 C 
BRANCH   4  11
ATOM      6  C2  UNL     1      -7.394  68.646  16.905  0.00  0.00    +0.000 A 
ATOM      7  C3  UNL     1      -7.915  69.730  17.642  0.00  0.00    +0.000 A 
ATOM      8  C4  UNL     1      -7.075  70.519  18.437  0.00  0.00    +0.000 A 
ATOM      9  C5  UNL     1      -5.711  70.230  18.507  0.00  0.00    +0.000 A 
ATOM     10  C6  UNL     1      -5.181  69.168  17.775  0.00  0.00    +0.000 A 
ATOM     11  C7  UNL     1      -6.005  68.383  16.951  0.00  0.00    +0.000 A 
BRANCH   6  13
ATOM     12  C1  UNL     1      -8.330  67.822  14.730  0.00  0.00    +0.000 C 
ATOM     13  O1  UNL     1      -8.230  67.806  16.150  0.00  0.00    +0.000 OA
ENDBRANCH   6  13
BRANCH   8  14
ATOM     14  O6  UNL     1      -7.588  71.588  19.169  0.00  0.00    +0.000 OA
ATOM     15  H20 UNL     1      -8.572  71.828  19.139  0.00  0.00    +0.000 HD
ENDBRANCH   8  14
ENDBRANCH   4  11
ENDBRANCH   2   5
ENDBRANCH   1   2
BRANCH   1  16
ATOM     16  C12 UNL     1      -2.493  65.327  15.893  0.00  0.00    +0.000 C 
ATOM     17  O3  UNL     1      -1.577  64.463  15.949  0.00  0.00    +0.000 OA
BRANCH  16  18
ATOM     18  C13 UNL     1      -2.362  66.533  16.739  0.00  0.00    +0.000 C 
ATOM     19  C14 UNL     1      -2.412  66.504  18.080  0.00  0.00    +0.000 C 
BRANCH  19  20
ATOM     20  C15 UNL     1      -2.269  67.711  18.931  0.00  0.00    +0.000 A 
ATOM     21  C16 UNL     1      -1.496  68.824  18.542  0.00  0.00    +0.000 A 
ATOM     22  C17 UNL     1      -1.396  69.955  19.376  0.00  0.00    +0.000 A 
ATOM     23  C18 UNL     1      -2.082  69.972  20.597  0.00  0.00    +0.000 A 
ATOM     24  C19 UNL     1      -2.865  68.877  20.978  0.00  0.00    +0.000 A 
ATOM     25  C20 UNL     1      -2.963  67.758  20.149  0.00  0.00    +0.000 A 
BRANCH  23  26
ATOM     26  O4  UNL     1      -1.985  71.088  21.427  0.00  0.00    +0.000 OA
ATOM     27  H16 UNL     1      -2.797  71.648  21.661  0.00  0.00    +0.000 HD
ENDBRANCH  23  26
BRANCH  22  28
ATOM     28  O5  UNL     1      -0.630  71.079  19.025  0.00  0.00    +0.000 OA
ATOM     29  C21 UNL     1      -0.246  71.411  17.695  0.00  0.00    +0.000 C 
ENDBRANCH  22  28
ENDBRANCH  19  20
ENDBRANCH  16  18
ENDBRANCH   1  16
TORSDOF 10
ENDMDL
