MODEL 1
REMARK VINA RESULT:      -4.6      0.000      0.000
REMARK  Name = .\curcumin.pdb
REMARK  12 active torsions:
REMARK  status: ('A' for Active; 'I' for Inactive)
REMARK    1  A    between atoms: C1_1  and  O1_2
REMARK    2  A    between atoms: O1_2  and  C2_3
REMARK    3  A    between atoms: C4_5  and  O6_27
REMARK    4  A    between atoms: C7_8  and  C8_9
REMARK    5  A    between atoms: C9_10  and  C10_11
REMARK    6  A    between atoms: C10_11  and  C11_13
REMARK    7  A    between atoms: C11_13  and  C12_14
REMARK    8  A    between atoms: C12_14  and  C13_16
REMARK    9  A    between atoms: C14_17  and  C15_18
REMARK   10  A    between atoms: C17_20  and  O5_25
REMARK   11  A    between atoms: C18_21  and  O4_24
REMARK   12  A    between atoms: O5_25  and  C21_26
REMARK                            x       y       z     vdW  Elec       q    Type
REMARK                         _______ _______ _______ _____ _____    ______ ____
ROOT
ATOM      1  C11 UNL     1     -10.811  99.523 110.068  0.00  0.00    +0.000 C 
ENDROOT
BRANCH   1   2
ATOM      2  C10 UNL     1     -12.279  99.390 110.361  0.00  0.00    +0.000 C 
ATOM      3  O2  UNL     1     -12.986 100.428 110.457  0.00  0.00    +0.000 OA
BRANCH   2   5
ATOM      4  C8  UNL     1     -13.173  97.510 111.685  0.00  0.00    +0.000 C 
ATOM      5  C9  UNL     1     -12.886  98.050 110.494  0.00  0.00    +0.000 C 
BRANCH   4  11
ATOM      6  C2  UNL     1     -14.934  95.968 112.668  0.00  0.00    +0.000 A 
ATOM      7  C3  UNL     1     -15.484  94.673 112.764  0.00  0.00    +0.000 A 
ATOM      8  C4  UNL     1     -14.951  93.616 112.015  0.00  0.00    +0.000 A 
ATOM      9  C5  UNL     1     -13.870  93.845 111.162  0.00  0.00    +0.000 A 
ATOM     10  C6  UNL     1     -13.310  95.119 111.065  0.00  0.00    +0.000 A 
ATOM     11  C7  UNL     1     -13.814  96.183 111.829  0.00  0.00    +0.000 A 
BRANCH   6  13
ATOM     12  C1  UNL     1     -15.190  97.397 114.712  0.00  0.00    +0.000 C 
ATOM     13  O1  UNL     1     -15.492  97.054 113.363  0.00  0.00    +0.000 OA
ENDBRANCH   6  13
BRANCH   8  14
ATOM     14  O6  UNL     1     -15.495  92.337 112.106  0.00  0.00    +0.000 OA
ATOM     15  H20 UNL     1     -15.831  91.964 112.986  0.00  0.00    +0.000 HD
ENDBRANCH   8  14
ENDBRANCH   4  11
ENDBRANCH   2   5
ENDBRANCH   1   2
BRANCH   1  16
ATOM     16  C12 UNL     1      -9.948  99.072 111.223  0.00  0.00    +0.000 C 
ATOM     17  O3  UNL     1      -9.650  99.883 112.141  0.00  0.00    +0.000 OA
BRANCH  16  18
ATOM     18  C13 UNL     1      -9.429  97.690 111.321  0.00  0.00    +0.000 C 
ATOM     19  C14 UNL     1     -10.024  96.728 112.043  0.00  0.00    +0.000 C 
BRANCH  19  20
ATOM     20  C15 UNL     1      -9.513  95.338 112.133  0.00  0.00    +0.000 A 
ATOM     21  C16 UNL     1      -8.237  95.033 112.650  0.00  0.00    +0.000 A 
ATOM     22  C17 UNL     1      -7.794  93.698 112.727  0.00  0.00    +0.000 A 
ATOM     23  C18 UNL     1      -8.639  92.666 112.295  0.00  0.00    +0.000 A 
ATOM     24  C19 UNL     1      -9.913  92.964 111.798  0.00  0.00    +0.000 A 
ATOM     25  C20 UNL     1     -10.349  94.288 111.724  0.00  0.00    +0.000 A 
BRANCH  23  26
ATOM     26  O4  UNL     1      -8.205  91.344 112.367  0.00  0.00    +0.000 OA
ATOM     27  H16 UNL     1      -8.043  90.792 111.532  0.00  0.00    +0.000 HD
ENDBRANCH  23  26
BRANCH  22  28
ATOM     28  O5  UNL     1      -6.527  93.356 113.229  0.00  0.00    +0.000 OA
ATOM     29  C21 UNL     1      -6.211  93.244 114.612  0.00  0.00    +0.000 C 
ENDBRANCH  22  28
ENDBRANCH  19  20
ENDBRANCH  16  18
ENDBRANCH   1  16
TORSDOF 10
ENDMDL
MODEL 2
REMARK VINA RESULT:      -4.3      1.692      5.520
REMARK  Name = .\curcumin.pdb
REMARK  12 active torsions:
REMARK  status: ('A' for Active; 'I' for Inactive)
REMARK    1  A    between atoms: C1_1  and  O1_2
REMARK    2  A    between atoms: O1_2  and  C2_3
REMARK    3  A    between atoms: C4_5  and  O6_27
REMARK    4  A    between atoms: C7_8  and  C8_9
REMARK    5  A    between atoms: C9_10  and  C10_11
REMARK    6  A    between atoms: C10_11  and  C11_13
REMARK    7  A    between atoms: C11_13  and  C12_14
REMARK    8  A    between atoms: C12_14  and  C13_16
REMARK    9  A    between atoms: C14_17  and  C15_18
REMARK   10  A    between atoms: C17_20  and  O5_25
REMARK   11  A    between atoms: C18_21  and  O4_24
REMARK   12  A    between atoms: O5_25  and  C21_26
REMARK                            x       y       z     vdW  Elec       q    Type
REMARK                         _______ _______ _______ _____ _____    ______ ____
ROOT
ATOM      1  C11 UNL     1      -8.750  92.606 111.674  0.00  0.00    +0.000 C 
ENDROOT
BRANCH   1   2
ATOM      2  C10 UNL     1     -10.248  92.489 111.654  0.00  0.00    +0.000 C 
ATOM      3  O2  UNL     1     -10.785  91.389 111.954  0.00  0.00    +0.000 OA
BRANCH   2   5
ATOM      4  C8  UNL     1     -12.347  93.782 111.727  0.00  0.00    +0.000 C 
ATOM      5  C9  UNL     1     -11.075  93.666 111.325  0.00  0.00    +0.000 C 
BRANCH   4  11
ATOM      6  C2  UNL     1     -14.471  95.150 111.975  0.00  0.00    +0.000 A 
ATOM      7  C3  UNL     1     -15.205  96.306 111.641  0.00  0.00    +0.000 A 
ATOM      8  C4  UNL     1     -14.650  97.287 110.809  0.00  0.00    +0.000 A 
ATOM      9  C5  UNL     1     -13.357  97.123 110.310  0.00  0.00    +0.000 A 
ATOM     10  C6  UNL     1     -12.623  95.979 110.625  0.00  0.00    +0.000 A 
ATOM     11  C7  UNL     1     -13.175  94.974 111.434  0.00  0.00    +0.000 A 
BRANCH   6  13
ATOM     12  C1  UNL     1     -15.479  94.459 114.164  0.00  0.00    +0.000 C 
ATOM     13  O1  UNL     1     -14.987  94.184 112.856  0.00  0.00    +0.000 OA
ENDBRANCH   6  13
BRANCH   8  14
ATOM     14  O6  UNL     1     -15.373  98.432 110.481  0.00  0.00    +0.000 OA
ATOM     15  H20 UNL     1     -15.927  98.485 109.634  0.00  0.00    +0.000 HD
ENDBRANCH   8  14
ENDBRANCH   4  11
ENDBRANCH   2   5
ENDBRANCH   1   2
BRANCH   1  16
ATOM     16  C12 UNL     1      -8.280  93.894 112.309  0.00  0.00    +0.000 C 
ATOM     17  O3  UNL     1      -7.198  93.921 112.956  0.00  0.00    +0.000 OA
BRANCH  16  18
ATOM     18  C13 UNL     1      -9.054  95.149 112.200  0.00  0.00    +0.000 C 
ATOM     19  C14 UNL     1      -9.682  95.723 113.238  0.00  0.00    +0.000 C 
BRANCH  19  20
ATOM     20  C15 UNL     1     -10.450  96.988 113.133  0.00  0.00    +0.000 A 
ATOM     21  C16 UNL     1      -9.992  98.091 112.382  0.00  0.00    +0.000 A 
ATOM     22  C17 UNL     1     -10.758  99.270 112.300  0.00  0.00    +0.000 A 
ATOM     23  C18 UNL     1     -11.990  99.339 112.964  0.00  0.00    +0.000 A 
ATOM     24  C19 UNL     1     -12.456  98.240 113.695  0.00  0.00    +0.000 A 
ATOM     25  C20 UNL     1     -11.695  97.072 113.774  0.00  0.00    +0.000 A 
BRANCH  23  26
ATOM     26  O4  UNL     1     -12.750 100.504 112.888  0.00  0.00    +0.000 OA
ATOM     27  H16 UNL     1     -12.380 101.401 113.186  0.00  0.00    +0.000 HD
ENDBRANCH  23  26
BRANCH  22  28
ATOM     28  O5  UNL     1     -10.332 100.391 111.568  0.00  0.00    +0.000 OA
ATOM     29  C21 UNL     1      -9.196 100.410 110.709  0.00  0.00    +0.000 C 
ENDBRANCH  22  28
ENDBRANCH  19  20
ENDBRANCH  16  18
ENDBRANCH   1  16
TORSDOF 10
ENDMDL
MODEL 3
REMARK VINA RESULT:      -4.0      1.508      5.708
REMARK  Name = .\curcumin.pdb
REMARK  12 active torsions:
REMARK  status: ('A' for Active; 'I' for Inactive)
REMARK    1  A    between atoms: C1_1  and  O1_2
REMARK    2  A    between atoms: O1_2  and  C2_3
REMARK    3  A    between atoms: C4_5  and  O6_27
REMARK    4  A    between atoms: C7_8  and  C8_9
REMARK    5  A    between atoms: C9_10  and  C10_11
REMARK    6  A    between atoms: C10_11  and  C11_13
REMARK    7  A    between atoms: C11_13  and  C12_14
REMARK    8  A    between atoms: C12_14  and  C13_16
REMARK    9  A    between atoms: C14_17  and  C15_18
REMARK   10  A    between atoms: C17_20  and  O5_25
REMARK   11  A    between atoms: C18_21  and  O4_24
REMARK   12  A    between atoms: O5_25  and  C21_26
REMARK                            x       y       z     vdW  Elec       q    Type
REMARK                         _______ _______ _______ _____ _____    ______ ____
ROOT
ATOM      1  C11 UNL     1      -8.729  92.338 112.193  0.00  0.00    +0.000 C 
ENDROOT
BRANCH   1   2
ATOM      2  C10 UNL     1     -10.204  92.333 111.904  0.00  0.00    +0.000 C 
ATOM      3  O2  UNL     1     -10.753  91.267 111.516  0.00  0.00    +0.000 OA
BRANCH   2   5
ATOM      4  C8  UNL     1     -12.311  93.613 111.844  0.00  0.00    +0.000 C 
ATOM      5  C9  UNL     1     -11.001  93.557 112.114  0.00  0.00    +0.000 C 
BRANCH   4  11
ATOM      6  C2  UNL     1     -14.393  95.019 111.482  0.00  0.00    +0.000 A 
ATOM      7  C3  UNL     1     -15.108  96.205 111.749  0.00  0.00    +0.000 A 
ATOM      8  C4  UNL     1     -14.590  97.166 112.626  0.00  0.00    +0.000 A 
ATOM      9  C5  UNL     1     -13.359  96.949 113.245  0.00  0.00    +0.000 A 
ATOM     10  C6  UNL     1     -12.636  95.786 112.982  0.00  0.00    +0.000 A 
ATOM     11  C7  UNL     1     -13.128  94.824 112.085  0.00  0.00    +0.000 A 
BRANCH   6  13
ATOM     12  C1  UNL     1     -15.455  92.778 111.115  0.00  0.00    +0.000 C 
ATOM     13  O1  UNL     1     -14.924  94.016 110.653  0.00  0.00    +0.000 OA
ENDBRANCH   6  13
BRANCH   8  14
ATOM     14  O6  UNL     1     -15.297  98.336 112.894  0.00  0.00    +0.000 OA
ATOM     15  H20 UNL     1     -16.239  98.314 113.267  0.00  0.00    +0.000 HD
ENDBRANCH   8  14
ENDBRANCH   4  11
ENDBRANCH   2   5
ENDBRANCH   1   2
BRANCH   1  16
ATOM     16  C12 UNL     1      -8.173  93.737 112.333  0.00  0.00    +0.000 C 
ATOM     17  O3  UNL     1      -7.107  93.930 112.977  0.00  0.00    +0.000 OA
BRANCH  16  18
ATOM     18  C13 UNL     1      -8.844  94.910 111.733  0.00  0.00    +0.000 C 
ATOM     19  C14 UNL     1      -9.167  96.012 112.428  0.00  0.00    +0.000 C 
BRANCH  19  20
ATOM     20  C15 UNL     1      -9.830  97.195 111.826  0.00  0.00    +0.000 A 
ATOM     21  C16 UNL     1     -10.271  98.289 112.597  0.00  0.00    +0.000 A 
ATOM     22  C17 UNL     1     -10.886  99.398 111.984  0.00  0.00    +0.000 A 
ATOM     23  C18 UNL     1     -11.048  99.413 110.592  0.00  0.00    +0.000 A 
ATOM     24  C19 UNL     1     -10.594  98.336 109.821  0.00  0.00    +0.000 A 
ATOM     25  C20 UNL     1      -9.985  97.239 110.432  0.00  0.00    +0.000 A 
BRANCH  23  26
ATOM     26  O4  UNL     1     -11.658 100.507 109.980  0.00  0.00    +0.000 OA
ATOM     27  H16 UNL     1     -12.573 100.835 110.269  0.00  0.00    +0.000 HD
ENDBRANCH  23  26
BRANCH  22  28
ATOM     28  O5  UNL     1     -11.345 100.503 112.720  0.00  0.00    +0.000 OA
ATOM     29  C21 UNL     1     -11.588 100.493 114.123  0.00  0.00    +0.000 C 
ENDBRANCH  22  28
ENDBRANCH  19  20
ENDBRANCH  16  18
ENDBRANCH   1  16
TORSDOF 10
ENDMDL
MODEL 4
REMARK VINA RESULT:      -3.4      1.369      1.597
REMARK  Name = .\curcumin.pdb
REMARK  12 active torsions:
REMARK  status: ('A' for Active; 'I' for Inactive)
REMARK    1  A    between atoms: C1_1  and  O1_2
REMARK    2  A    between atoms: O1_2  and  C2_3
REMARK    3  A    between atoms: C4_5  and  O6_27
REMARK    4  A    between atoms: C7_8  and  C8_9
REMARK    5  A    between atoms: C9_10  and  C10_11
REMARK    6  A    between atoms: C10_11  and  C11_13
REMARK    7  A    between atoms: C11_13  and  C12_14
REMARK    8  A    between atoms: C12_14  and  C13_16
REMARK    9  A    between atoms: C14_17  and  C15_18
REMARK   10  A    between atoms: C17_20  and  O5_25
REMARK   11  A    between atoms: C18_21  and  O4_24
REMARK   12  A    between atoms: O5_25  and  C21_26
REMARK                            x       y       z     vdW  Elec       q    Type
REMARK                         _______ _______ _______ _____ _____    ______ ____
ROOT
ATOM      1  C11 UNL     1     -10.334  99.674 111.456  0.00  0.00    +0.000 C 
ENDROOT
BRANCH   1   2
ATOM      2  C10 UNL     1     -11.594  99.500 110.655  0.00  0.00    +0.000 C 
ATOM      3  O2  UNL     1     -11.831 100.286 109.698  0.00  0.00    +0.000 OA
BRANCH   2   5
ATOM      4  C8  UNL     1     -12.168  97.108 110.832  0.00  0.00    +0.000 C 
ATOM      5  C9  UNL     1     -12.519  98.393 110.966  0.00  0.00    +0.000 C 
BRANCH   4  11
ATOM      6  C2  UNL     1     -14.472  96.051 110.965  0.00  0.00    +0.000 A 
ATOM      7  C3  UNL     1     -15.273  94.949 111.329  0.00  0.00    +0.000 A 
ATOM      8  C4  UNL     1     -14.692  93.793 111.865  0.00  0.00    +0.000 A 
ATOM      9  C5  UNL     1     -13.309  93.725 112.035  0.00  0.00    +0.000 A 
ATOM     10  C6  UNL     1     -12.505  94.812 111.688  0.00  0.00    +0.000 A 
ATOM     11  C7  UNL     1     -13.074  95.989 111.176  0.00  0.00    +0.000 A 
BRANCH   6  13
ATOM     12  C1  UNL     1     -15.481  97.272 109.022  0.00  0.00    +0.000 C 
ATOM     13  O1  UNL     1     -15.029  97.196 110.370  0.00  0.00    +0.000 OA
ENDBRANCH   6  13
BRANCH   8  14
ATOM     14  O6  UNL     1     -15.482  92.702 112.222  0.00  0.00    +0.000 OA
ATOM     15  H20 UNL     1     -16.140  92.752 112.991  0.00  0.00    +0.000 HD
ENDBRANCH   8  14
ENDBRANCH   4  11
ENDBRANCH   2   5
ENDBRANCH   1   2
BRANCH   1  16
ATOM     16  C12 UNL     1      -9.140  99.015 110.805  0.00  0.00    +0.000 C 
ATOM     17  O3  UNL     1      -8.318  99.709 110.147  0.00  0.00    +0.000 OA
BRANCH  16  18
ATOM     18  C13 UNL     1      -8.895  97.561 110.910  0.00  0.00    +0.000 C 
ATOM     19  C14 UNL     1      -9.174  96.842 112.009  0.00  0.00    +0.000 C 
BRANCH  19  20
ATOM     20  C15 UNL     1      -8.940  95.381 112.113  0.00  0.00    +0.000 A 
ATOM     21  C16 UNL     1      -8.062  94.822 113.065  0.00  0.00    +0.000 A 
ATOM     22  C17 UNL     1      -7.876  93.427 113.137  0.00  0.00    +0.000 A 
ATOM     23  C18 UNL     1      -8.582  92.592 112.260  0.00  0.00    +0.000 A 
ATOM     24  C19 UNL     1      -9.468  93.143 111.327  0.00  0.00    +0.000 A 
ATOM     25  C20 UNL     1      -9.650  94.525 111.259  0.00  0.00    +0.000 A 
BRANCH  23  26
ATOM     26  O4  UNL     1      -8.400  91.212 112.326  0.00  0.00    +0.000 OA
ATOM     27  H16 UNL     1      -9.078  90.608 112.778  0.00  0.00    +0.000 HD
ENDBRANCH  23  26
BRANCH  22  28
ATOM     28  O5  UNL     1      -7.006  92.834 114.066  0.00  0.00    +0.000 OA
ATOM     29  C21 UNL     1      -6.149  93.556 114.945  0.00  0.00    +0.000 C 
ENDBRANCH  22  28
ENDBRANCH  19  20
ENDBRANCH  16  18
ENDBRANCH   1  16
TORSDOF 10
ENDMDL
