MODEL 1
REMARK VINA RESULT:      -6.7      0.000      0.000
REMARK  Name = .\curcumin.pdb
REMARK  12 active torsions:
REMARK  status: ('A' for Active; 'I' for Inactive)
REMARK    1  A    between atoms: C1_1  and  O1_2
REMARK    2  A    between atoms: O1_2  and  C2_3
REMARK    3  A    between atoms: C4_5  and  O6_27
REMARK    4  A    between atoms: C7_8  and  C8_9
REMARK    5  A    between atoms: C9_10  and  C10_11
REMARK    6  A    between atoms: C10_11  and  C11_13
REMARK    7  A    between atoms: C11_13  and  C12_14
REMARK    8  A    between atoms: C12_14  and  C13_16
REMARK    9  A    between atoms: C14_17  and  C15_18
REMARK   10  A    between atoms: C17_20  and  O5_25
REMARK   11  A    between atoms: C18_21  and  O4_24
REMARK   12  A    between atoms: O5_25  and  C21_26
REMARK                            x       y       z     vdW  Elec       q    Type
REMARK                         _______ _______ _______ _____ _____    ______ ____
ROOT
ATOM      1  C11 UNL     1     -10.744  60.072  18.352  0.00  0.00    +0.000 C 
ENDROOT
BRANCH   1   2
ATOM      2  C10 UNL     1     -10.829  58.573  18.282  0.00  0.00    +0.000 C 
ATOM      3  O2  UNL     1     -11.823  57.987  18.790  0.00  0.00    +0.000 OA
BRANCH   2   5
ATOM      4  C8  UNL     1      -9.116  58.292  16.531  0.00  0.00    +0.000 C 
ATOM      5  C9  UNL     1      -9.775  57.806  17.590  0.00  0.00    +0.000 C 
BRANCH   4  11
ATOM      6  C2  UNL     1      -7.071  58.184  15.030  0.00  0.00    +0.000 A 
ATOM      7  C3  UNL     1      -6.075  57.406  14.405  0.00  0.00    +0.000 A 
ATOM      8  C4  UNL     1      -6.014  56.023  14.616  0.00  0.00    +0.000 A 
ATOM      9  C5  UNL     1      -6.943  55.408  15.456  0.00  0.00    +0.000 A 
ATOM     10  C6  UNL     1      -7.940  56.163  16.074  0.00  0.00    +0.000 A 
ATOM     11  C7  UNL     1      -8.032  57.547  15.850  0.00  0.00    +0.000 A 
BRANCH   6  13
ATOM     12  C1  UNL     1      -6.426  60.508  15.713  0.00  0.00    +0.000 C 
ATOM     13  O1  UNL     1      -7.112  59.581  14.879  0.00  0.00    +0.000 OA
ENDBRANCH   6  13
BRANCH   8  14
ATOM     14  O6  UNL     1      -5.028  55.254  14.002  0.00  0.00    +0.000 OA
ATOM     15  H20 UNL     1      -4.106  55.627  13.810  0.00  0.00    +0.000 HD
ENDBRANCH   8  14
ENDBRANCH   4  11
ENDBRANCH   2   5
ENDBRANCH   1   2
BRANCH   1  16
ATOM     16  C12 UNL     1     -11.540  60.747  17.258  0.00  0.00    +0.000 C 
ATOM     17  O3  UNL     1     -12.793  60.839  17.356  0.00  0.00    +0.000 OA
BRANCH  16  18
ATOM     18  C13 UNL     1     -10.893  61.313  16.055  0.00  0.00    +0.000 C 
ATOM     19  C14 UNL     1      -9.822  62.121  16.103  0.00  0.00    +0.000 C 
BRANCH  19  20
ATOM     20  C15 UNL     1      -9.165  62.681  14.897  0.00  0.00    +0.000 A 
ATOM     21  C16 UNL     1      -8.051  63.543  14.974  0.00  0.00    +0.000 A 
ATOM     22  C17 UNL     1      -7.449  64.044  13.803  0.00  0.00    +0.000 A 
ATOM     23  C18 UNL     1      -7.959  63.669  12.553  0.00  0.00    +0.000 A 
ATOM     24  C19 UNL     1      -9.052  62.799  12.472  0.00  0.00    +0.000 A 
ATOM     25  C20 UNL     1      -9.646  62.304  13.635  0.00  0.00    +0.000 A 
BRANCH  23  26
ATOM     26  O4  UNL     1      -7.369  64.164  11.391  0.00  0.00    +0.000 OA
ATOM     27  H16 UNL     1      -6.453  64.601  11.405  0.00  0.00    +0.000 HD
ENDBRANCH  23  26
BRANCH  22  28
ATOM     28  O5  UNL     1      -6.345  64.911  13.840  0.00  0.00    +0.000 OA
ATOM     29  C21 UNL     1      -5.360  64.919  14.869  0.00  0.00    +0.000 C 
ENDBRANCH  22  28
ENDBRANCH  19  20
ENDBRANCH  16  18
ENDBRANCH   1  16
TORSDOF 10
ENDMDL
MODEL 2
REMARK VINA RESULT:      -5.6      1.656      5.385
REMARK  Name = .\curcumin.pdb
REMARK  12 active torsions:
REMARK  status: ('A' for Active; 'I' for Inactive)
REMARK    1  A    between atoms: C1_1  and  O1_2
REMARK    2  A    between atoms: O1_2  and  C2_3
REMARK    3  A    between atoms: C4_5  and  O6_27
REMARK    4  A    between atoms: C7_8  and  C8_9
REMARK    5  A    between atoms: C9_10  and  C10_11
REMARK    6  A    between atoms: C10_11  and  C11_13
REMARK    7  A    between atoms: C11_13  and  C12_14
REMARK    8  A    between atoms: C12_14  and  C13_16
REMARK    9  A    between atoms: C14_17  and  C15_18
REMARK   10  A    between atoms: C17_20  and  O5_25
REMARK   11  A    between atoms: C18_21  and  O4_24
REMARK   12  A    between atoms: O5_25  and  C21_26
REMARK                            x       y       z     vdW  Elec       q    Type
REMARK                         _______ _______ _______ _____ _____    ______ ____
ROOT
ATOM      1  C11 UNL     1      -6.873  56.407  14.191  0.00  0.00    +0.000 C 
ENDROOT
BRANCH   1   2
ATOM      2  C10 UNL     1      -7.720  56.142  15.404  0.00  0.00    +0.000 C 
ATOM      3  O2  UNL     1      -7.565  55.065  16.042  0.00  0.00    +0.000 OA
BRANCH   2   5
ATOM      4  C8  UNL     1      -9.037  57.285  17.148  0.00  0.00    +0.000 C 
ATOM      5  C9  UNL     1      -8.692  57.155  15.861  0.00  0.00    +0.000 C 
BRANCH   4  11
ATOM      6  C2  UNL     1     -10.784  58.147  18.776  0.00  0.00    +0.000 A 
ATOM      7  C3  UNL     1     -11.671  59.174  19.160  0.00  0.00    +0.000 A 
ATOM      8  C4  UNL     1     -11.739  60.366  18.429  0.00  0.00    +0.000 A 
ATOM      9  C5  UNL     1     -10.918  60.546  17.314  0.00  0.00    +0.000 A 
ATOM     10  C6  UNL     1     -10.043  59.534  16.918  0.00  0.00    +0.000 A 
ATOM     11  C7  UNL     1      -9.983  58.321  17.622  0.00  0.00    +0.000 A 
BRANCH   6  13
ATOM     12  C1  UNL     1     -11.616  55.915  19.559  0.00  0.00    +0.000 C 
ATOM     13  O1  UNL     1     -10.658  56.968  19.531  0.00  0.00    +0.000 OA
ENDBRANCH   6  13
BRANCH   8  14
ATOM     14  O6  UNL     1     -12.612  61.383  18.809  0.00  0.00    +0.000 OA
ATOM     15  H20 UNL     1     -12.938  61.474  19.764  0.00  0.00    +0.000 HD
ENDBRANCH   8  14
ENDBRANCH   4  11
ENDBRANCH   2   5
ENDBRANCH   1   2
BRANCH   1  16
ATOM     16  C12 UNL     1      -5.983  57.616  14.361  0.00  0.00    +0.000 C 
ATOM     17  O3  UNL     1      -4.748  57.466  14.567  0.00  0.00    +0.000 OA
BRANCH  16  18
ATOM     18  C13 UNL     1      -6.514  58.995  14.294  0.00  0.00    +0.000 C 
ATOM     19  C14 UNL     1      -6.659  59.783  15.371  0.00  0.00    +0.000 C 
BRANCH  19  20
ATOM     20  C15 UNL     1      -7.180  61.171  15.304  0.00  0.00    +0.000 A 
ATOM     21  C16 UNL     1      -6.492  62.265  15.870  0.00  0.00    +0.000 A 
ATOM     22  C17 UNL     1      -7.017  63.569  15.775  0.00  0.00    +0.000 A 
ATOM     23  C18 UNL     1      -8.229  63.776  15.101  0.00  0.00    +0.000 A 
ATOM     24  C19 UNL     1      -8.904  62.695  14.523  0.00  0.00    +0.000 A 
ATOM     25  C20 UNL     1      -8.381  61.404  14.618  0.00  0.00    +0.000 A 
BRANCH  23  26
ATOM     26  O4  UNL     1      -8.753  65.063  15.007  0.00  0.00    +0.000 OA
ATOM     27  H16 UNL     1      -8.643  65.738  15.756  0.00  0.00    +0.000 HD
ENDBRANCH  23  26
BRANCH  22  28
ATOM     28  O5  UNL     1      -6.365  64.681  16.331  0.00  0.00    +0.000 OA
ATOM     29  C21 UNL     1      -4.966  64.929  16.233  0.00  0.00    +0.000 C 
ENDBRANCH  22  28
ENDBRANCH  19  20
ENDBRANCH  16  18
ENDBRANCH   1  16
TORSDOF 10
ENDMDL
MODEL 3
REMARK VINA RESULT:      -5.5      1.824      6.449
REMARK  Name = .\curcumin.pdb
REMARK  12 active torsions:
REMARK  status: ('A' for Active; 'I' for Inactive)
REMARK    1  A    between atoms: C1_1  and  O1_2
REMARK    2  A    between atoms: O1_2  and  C2_3
REMARK    3  A    between atoms: C4_5  and  O6_27
REMARK    4  A    between atoms: C7_8  and  C8_9
REMARK    5  A    between atoms: C9_10  and  C10_11
REMARK    6  A    between atoms: C10_11  and  C11_13
REMARK    7  A    between atoms: C11_13  and  C12_14
REMARK    8  A    between atoms: C12_14  and  C13_16
REMARK    9  A    between atoms: C14_17  and  C15_18
REMARK   10  A    between atoms: C17_20  and  O5_25
REMARK   11  A    between atoms: C18_21  and  O4_24
REMARK   12  A    between atoms: O5_25  and  C21_26
REMARK                            x       y       z     vdW  Elec       q    Type
REMARK                         _______ _______ _______ _____ _____    ______ ____
ROOT
ATOM      1  C11 UNL     1      -7.090  57.025  14.107  0.00  0.00    +0.000 C 
ENDROOT
BRANCH   1   2
ATOM      2  C10 UNL     1      -5.906  57.884  14.454  0.00  0.00    +0.000 C 
ATOM      3  O2  UNL     1      -4.744  57.411  14.332  0.00  0.00    +0.000 OA
BRANCH   2   5
ATOM      4  C8  UNL     1      -7.167  60.003  14.507  0.00  0.00    +0.000 C 
ATOM      5  C9  UNL     1      -6.110  59.278  14.895  0.00  0.00    +0.000 C 
BRANCH   4  11
ATOM      6  C2  UNL     1      -8.307  62.264  14.325  0.00  0.00    +0.000 A 
ATOM      7  C3  UNL     1      -8.469  63.575  14.818  0.00  0.00    +0.000 A 
ATOM      8  C4  UNL     1      -7.766  64.001  15.952  0.00  0.00    +0.000 A 
ATOM      9  C5  UNL     1      -6.903  63.120  16.606  0.00  0.00    +0.000 A 
ATOM     10  C6  UNL     1      -6.726  61.824  16.124  0.00  0.00    +0.000 A 
ATOM     11  C7  UNL     1      -7.401  61.389  14.972  0.00  0.00    +0.000 A 
BRANCH   6  13
ATOM     12  C1  UNL     1      -9.641  62.632  12.235  0.00  0.00    +0.000 C 
ATOM     13  O1  UNL     1      -9.048  61.799  13.226  0.00  0.00    +0.000 OA
ENDBRANCH   6  13
BRANCH   8  14
ATOM     14  O6  UNL     1      -7.927  65.295  16.443  0.00  0.00    +0.000 OA
ATOM     15  H20 UNL     1      -8.827  65.634  16.761  0.00  0.00    +0.000 HD
ENDBRANCH   8  14
ENDBRANCH   4  11
ENDBRANCH   2   5
ENDBRANCH   1   2
BRANCH   1  16
ATOM     16  C12 UNL     1      -7.799  56.497  15.332  0.00  0.00    +0.000 C 
ATOM     17  O3  UNL     1      -7.678  55.285  15.657  0.00  0.00    +0.000 OA
BRANCH  16  18
ATOM     18  C13 UNL     1      -8.646  57.363  16.181  0.00  0.00    +0.000 C 
ATOM     19  C14 UNL     1      -9.467  58.304  15.689  0.00  0.00    +0.000 C 
BRANCH  19  20
ATOM     20  C15 UNL     1     -10.326  59.165  16.538  0.00  0.00    +0.000 A 
ATOM     21  C16 UNL     1     -10.889  60.370  16.068  0.00  0.00    +0.000 A 
ATOM     22  C17 UNL     1     -11.708  61.153  16.905  0.00  0.00    +0.000 A 
ATOM     23  C18 UNL     1     -11.973  60.719  18.211  0.00  0.00    +0.000 A 
ATOM     24  C19 UNL     1     -11.432  59.515  18.674  0.00  0.00    +0.000 A 
ATOM     25  C20 UNL     1     -10.621  58.741  17.842  0.00  0.00    +0.000 A 
BRANCH  23  26
ATOM     26  O4  UNL     1     -12.782  61.492  19.042  0.00  0.00    +0.000 OA
ATOM     27  H16 UNL     1     -12.980  61.214  19.998  0.00  0.00    +0.000 HD
ENDBRANCH  23  26
BRANCH  22  28
ATOM     28  O5  UNL     1     -12.280  62.362  16.475  0.00  0.00    +0.000 OA
ATOM     29  C21 UNL     1     -12.388  62.764  15.113  0.00  0.00    +0.000 C 
ENDBRANCH  22  28
ENDBRANCH  19  20
ENDBRANCH  16  18
ENDBRANCH   1  16
TORSDOF 10
ENDMDL
MODEL 4
REMARK VINA RESULT:      -5.4      1.845      5.628
REMARK  Name = .\curcumin.pdb
REMARK  12 active torsions:
REMARK  status: ('A' for Active; 'I' for Inactive)
REMARK    1  A    between atoms: C1_1  and  O1_2
REMARK    2  A    between atoms: O1_2  and  C2_3
REMARK    3  A    between atoms: C4_5  and  O6_27
REMARK    4  A    between atoms: C7_8  and  C8_9
REMARK    5  A    between atoms: C9_10  and  C10_11
REMARK    6  A    between atoms: C10_11  and  C11_13
REMARK    7  A    between atoms: C11_13  and  C12_14
REMARK    8  A    between atoms: C12_14  and  C13_16
REMARK    9  A    between atoms: C14_17  and  C15_18
REMARK   10  A    between atoms: C17_20  and  O5_25
REMARK   11  A    between atoms: C18_21  and  O4_24
REMARK   12  A    between atoms: O5_25  and  C21_26
REMARK                            x       y       z     vdW  Elec       q    Type
REMARK                         _______ _______ _______ _____ _____    ______ ____
ROOT
ATOM      1  C11 UNL     1      -6.793  56.636  14.141  0.00  0.00    +0.000 C 
ENDROOT
BRANCH   1   2
ATOM      2  C10 UNL     1      -7.699  56.326  15.300  0.00  0.00    +0.000 C 
ATOM      3  O2  UNL     1      -7.593  55.216  15.886  0.00  0.00    +0.000 OA
BRANCH   2   5
ATOM      4  C8  UNL     1      -9.111  57.375  17.029  0.00  0.00    +0.000 C 
ATOM      5  C9  UNL     1      -8.672  57.334  15.765  0.00  0.00    +0.000 C 
BRANCH   4  11
ATOM      6  C2  UNL     1     -10.870  58.208  18.659  0.00  0.00    +0.000 A 
ATOM      7  C3  UNL     1     -11.758  59.229  19.055  0.00  0.00    +0.000 A 
ATOM      8  C4  UNL     1     -11.818  60.436  18.346  0.00  0.00    +0.000 A 
ATOM      9  C5  UNL     1     -10.988  60.634  17.242  0.00  0.00    +0.000 A 
ATOM     10  C6  UNL     1     -10.112  59.629  16.834  0.00  0.00    +0.000 A 
ATOM     11  C7  UNL     1     -10.059  58.403  17.516  0.00  0.00    +0.000 A 
BRANCH   6  13
ATOM     12  C1  UNL     1     -11.792  56.058  19.559  0.00  0.00    +0.000 C 
ATOM     13  O1  UNL     1     -10.752  57.016  19.392  0.00  0.00    +0.000 OA
ENDBRANCH   6  13
BRANCH   8  14
ATOM     14  O6  UNL     1     -12.693  61.447  18.739  0.00  0.00    +0.000 OA
ATOM     15  H20 UNL     1     -13.509  61.252  19.307  0.00  0.00    +0.000 HD
ENDBRANCH   8  14
ENDBRANCH   4  11
ENDBRANCH   2   5
ENDBRANCH   1   2
BRANCH   1  16
ATOM     16  C12 UNL     1      -6.080  57.959  14.303  0.00  0.00    +0.000 C 
ATOM     17  O3  UNL     1      -4.821  57.997  14.328  0.00  0.00    +0.000 OA
BRANCH  16  18
ATOM     18  C13 UNL     1      -6.818  59.234  14.436  0.00  0.00    +0.000 C 
ATOM     19  C14 UNL     1      -6.421  60.237  15.236  0.00  0.00    +0.000 C 
BRANCH  19  20
ATOM     20  C15 UNL     1      -7.152  61.521  15.362  0.00  0.00    +0.000 A 
ATOM     21  C16 UNL     1      -8.432  61.721  14.806  0.00  0.00    +0.000 A 
ATOM     22  C17 UNL     1      -9.097  62.954  14.958  0.00  0.00    +0.000 A 
ATOM     23  C18 UNL     1      -8.478  63.984  15.680  0.00  0.00    +0.000 A 
ATOM     24  C19 UNL     1      -7.216  63.783  16.248  0.00  0.00    +0.000 A 
ATOM     25  C20 UNL     1      -6.561  62.560  16.096  0.00  0.00    +0.000 A 
BRANCH  23  26
ATOM     26  O4  UNL     1      -9.130  65.207  15.831  0.00  0.00    +0.000 OA
ATOM     27  H16 UNL     1      -9.259  65.631  16.744  0.00  0.00    +0.000 HD
ENDBRANCH  23  26
BRANCH  22  28
ATOM     28  O5  UNL     1     -10.369  63.192  14.413  0.00  0.00    +0.000 OA
ATOM     29  C21 UNL     1     -10.617  63.992  13.262  0.00  0.00    +0.000 C 
ENDBRANCH  22  28
ENDBRANCH  19  20
ENDBRANCH  16  18
ENDBRANCH   1  16
TORSDOF 10
ENDMDL
MODEL 5
REMARK VINA RESULT:      -5.2      1.817      5.432
REMARK  Name = .\curcumin.pdb
REMARK  12 active torsions:
REMARK  status: ('A' for Active; 'I' for Inactive)
REMARK    1  A    between atoms: C1_1  and  O1_2
REMARK    2  A    between atoms: O1_2  and  C2_3
REMARK    3  A    between atoms: C4_5  and  O6_27
REMARK    4  A    between atoms: C7_8  and  C8_9
REMARK    5  A    between atoms: C9_10  and  C10_11
REMARK    6  A    between atoms: C10_11  and  C11_13
REMARK    7  A    between atoms: C11_13  and  C12_14
REMARK    8  A    between atoms: C12_14  and  C13_16
REMARK    9  A    between atoms: C14_17  and  C15_18
REMARK   10  A    between atoms: C17_20  and  O5_25
REMARK   11  A    between atoms: C18_21  and  O4_24
REMARK   12  A    between atoms: O5_25  and  C21_26
REMARK                            x       y       z     vdW  Elec       q    Type
REMARK                         _______ _______ _______ _____ _____    ______ ____
ROOT
ATOM      1  C11 UNL     1      -6.208  56.779  15.569  0.00  0.00    +0.000 C 
ENDROOT
BRANCH   1   2
ATOM      2  C10 UNL     1      -7.694  56.559  15.592  0.00  0.00    +0.000 C 
ATOM      3  O2  UNL     1      -8.195  55.654  14.871  0.00  0.00    +0.000 OA
BRANCH   2   5
ATOM      4  C8  UNL     1      -9.451  58.239  16.010  0.00  0.00    +0.000 C 
ATOM      5  C9  UNL     1      -8.547  57.371  16.482  0.00  0.00    +0.000 C 
BRANCH   4  11
ATOM      6  C2  UNL     1     -11.109  60.118  16.415  0.00  0.00    +0.000 A 
ATOM      7  C3  UNL     1     -11.921  60.835  17.318  0.00  0.00    +0.000 A 
ATOM      8  C4  UNL     1     -11.989  60.461  18.666  0.00  0.00    +0.000 A 
ATOM      9  C5  UNL     1     -11.252  59.366  19.121  0.00  0.00    +0.000 A 
ATOM     10  C6  UNL     1     -10.438  58.654  18.240  0.00  0.00    +0.000 A 
ATOM     11  C7  UNL     1     -10.337  59.032  16.892  0.00  0.00    +0.000 A 
BRANCH   6  13
ATOM     12  C1  UNL     1     -12.223  60.585  14.218  0.00  0.00    +0.000 C 
ATOM     13  O1  UNL     1     -11.075  60.440  15.048  0.00  0.00    +0.000 OA
ENDBRANCH   6  13
BRANCH   8  14
ATOM     14  O6  UNL     1     -12.793  61.166  19.559  0.00  0.00    +0.000 OA
ATOM     15  H20 UNL     1     -13.803  61.168  19.476  0.00  0.00    +0.000 HD
ENDBRANCH   8  14
ENDBRANCH   4  11
ENDBRANCH   2   5
ENDBRANCH   1   2
BRANCH   1  16
ATOM     16  C12 UNL     1      -5.803  57.888  14.625  0.00  0.00    +0.000 C 
ATOM     17  O3  UNL     1      -4.821  57.730  13.851  0.00  0.00    +0.000 OA
BRANCH  16  18
ATOM     18  C13 UNL     1      -6.527  59.177  14.575  0.00  0.00    +0.000 C 
ATOM     19  C14 UNL     1      -6.297  60.187  15.427  0.00  0.00    +0.000 C 
BRANCH  19  20
ATOM     20  C15 UNL     1      -7.014  61.485  15.371  0.00  0.00    +0.000 A 
ATOM     21  C16 UNL     1      -8.145  61.690  14.554  0.00  0.00    +0.000 A 
ATOM     22  C17 UNL     1      -8.803  62.936  14.538  0.00  0.00    +0.000 A 
ATOM     23  C18 UNL     1      -8.330  63.974  15.353  0.00  0.00    +0.000 A 
ATOM     24  C19 UNL     1      -7.219  63.768  16.178  0.00  0.00    +0.000 A 
ATOM     25  C20 UNL     1      -6.570  62.532  16.192  0.00  0.00    +0.000 A 
BRANCH  23  26
ATOM     26  O4  UNL     1      -8.976  65.208  15.339  0.00  0.00    +0.000 OA
ATOM     27  H16 UNL     1      -8.468  66.075  15.478  0.00  0.00    +0.000 HD
ENDBRANCH  23  26
BRANCH  22  28
ATOM     28  O5  UNL     1      -9.928  63.179  13.733  0.00  0.00    +0.000 OA
ATOM     29  C21 UNL     1     -10.028  62.824  12.358  0.00  0.00    +0.000 C 
ENDBRANCH  22  28
ENDBRANCH  19  20
ENDBRANCH  16  18
ENDBRANCH   1  16
TORSDOF 10
ENDMDL
MODEL 6
REMARK VINA RESULT:      -4.8      2.473      7.335
REMARK  Name = .\curcumin.pdb
REMARK  12 active torsions:
REMARK  status: ('A' for Active; 'I' for Inactive)
REMARK    1  A    between atoms: C1_1  and  O1_2
REMARK    2  A    between atoms: O1_2  and  C2_3
REMARK    3  A    between atoms: C4_5  and  O6_27
REMARK    4  A    between atoms: C7_8  and  C8_9
REMARK    5  A    between atoms: C9_10  and  C10_11
REMARK    6  A    between atoms: C10_11  and  C11_13
REMARK    7  A    between atoms: C11_13  and  C12_14
REMARK    8  A    between atoms: C12_14  and  C13_16
REMARK    9  A    between atoms: C14_17  and  C15_18
REMARK   10  A    between atoms: C17_20  and  O5_25
REMARK   11  A    between atoms: C18_21  and  O4_24
REMARK   12  A    between atoms: O5_25  and  C21_26
REMARK                            x       y       z     vdW  Elec       q    Type
REMARK                         _______ _______ _______ _____ _____    ______ ____
ROOT
ATOM      1  C11 UNL     1     -10.952  59.439  16.901  0.00  0.00    +0.000 C 
ENDROOT
BRANCH   1   2
ATOM      2  C10 UNL     1     -11.940  60.572  16.918  0.00  0.00    +0.000 C 
ATOM      3  O2  UNL     1     -12.502  60.885  18.002  0.00  0.00    +0.000 OA
BRANCH   2   5
ATOM      4  C8  UNL     1     -11.671  62.534  15.446  0.00  0.00    +0.000 C 
ATOM      5  C9  UNL     1     -12.212  61.332  15.681  0.00  0.00    +0.000 C 
BRANCH   4  11
ATOM      6  C2  UNL     1     -11.482  64.627  14.023  0.00  0.00    +0.000 A 
ATOM      7  C3  UNL     1     -11.754  65.285  12.805  0.00  0.00    +0.000 A 
ATOM      8  C4  UNL     1     -12.410  64.615  11.765  0.00  0.00    +0.000 A 
ATOM      9  C5  UNL     1     -12.793  63.283  11.929  0.00  0.00    +0.000 A 
ATOM     10  C6  UNL     1     -12.539  62.623  13.131  0.00  0.00    +0.000 A 
ATOM     11  C7  UNL     1     -11.908  63.288  14.195  0.00  0.00    +0.000 A 
BRANCH   6  13
ATOM     12  C1  UNL     1      -9.353  65.285  15.171  0.00  0.00    +0.000 C 
ATOM     13  O1  UNL     1     -10.772  65.262  15.055  0.00  0.00    +0.000 OA
ENDBRANCH   6  13
BRANCH   8  14
ATOM     14  O6  UNL     1     -12.676  65.263  10.560  0.00  0.00    +0.000 OA
ATOM     15  H20 UNL     1     -13.021  66.215  10.534  0.00  0.00    +0.000 HD
ENDBRANCH   8  14
ENDBRANCH   4  11
ENDBRANCH   2   5
ENDBRANCH   1   2
BRANCH   1  16
ATOM     16  C12 UNL     1      -9.532  59.915  16.701  0.00  0.00    +0.000 C 
ATOM     17  O3  UNL     1      -9.196  61.072  17.070  0.00  0.00    +0.000 OA
BRANCH  16  18
ATOM     18  C13 UNL     1      -8.500  59.058  16.076  0.00  0.00    +0.000 C 
ATOM     19  C14 UNL     1      -8.631  57.730  15.933  0.00  0.00    +0.000 C 
BRANCH  19  20
ATOM     20  C15 UNL     1      -7.603  56.870  15.296  0.00  0.00    +0.000 A 
ATOM     21  C16 UNL     1      -6.244  57.241  15.226  0.00  0.00    +0.000 A 
ATOM     22  C17 UNL     1      -5.298  56.390  14.621  0.00  0.00    +0.000 A 
ATOM     23  C18 UNL     1      -5.716  55.159  14.096  0.00  0.00    +0.000 A 
ATOM     24  C19 UNL     1      -7.060  54.780  14.181  0.00  0.00    +0.000 A 
ATOM     25  C20 UNL     1      -7.995  55.626  14.781  0.00  0.00    +0.000 A 
BRANCH  23  26
ATOM     26  O4  UNL     1      -4.785  54.315  13.495  0.00  0.00    +0.000 OA
ATOM     27  H16 UNL     1      -3.841  54.221  13.857  0.00  0.00    +0.000 HD
ENDBRANCH  23  26
BRANCH  22  28
ATOM     28  O5  UNL     1      -3.939  56.728  14.526  0.00  0.00    +0.000 OA
ATOM     29  C21 UNL     1      -3.406  58.018  14.808  0.00  0.00    +0.000 C 
ENDBRANCH  22  28
ENDBRANCH  19  20
ENDBRANCH  16  18
ENDBRANCH   1  16
TORSDOF 10
ENDMDL
MODEL 7
REMARK VINA RESULT:      -4.1      1.625      2.134
REMARK  Name = .\curcumin.pdb
REMARK  12 active torsions:
REMARK  status: ('A' for Active; 'I' for Inactive)
REMARK    1  A    between atoms: C1_1  and  O1_2
REMARK    2  A    between atoms: O1_2  and  C2_3
REMARK    3  A    between atoms: C4_5  and  O6_27
REMARK    4  A    between atoms: C7_8  and  C8_9
REMARK    5  A    between atoms: C9_10  and  C10_11
REMARK    6  A    between atoms: C10_11  and  C11_13
REMARK    7  A    between atoms: C11_13  and  C12_14
REMARK    8  A    between atoms: C12_14  and  C13_16
REMARK    9  A    between atoms: C14_17  and  C15_18
REMARK   10  A    between atoms: C17_20  and  O5_25
REMARK   11  A    between atoms: C18_21  and  O4_24
REMARK   12  A    between atoms: O5_25  and  C21_26
REMARK                            x       y       z     vdW  Elec       q    Type
REMARK                         _______ _______ _______ _____ _____    ______ ____
ROOT
ATOM      1  C11 UNL     1      -9.317  58.945  17.812  0.00  0.00    +0.000 C 
ENDROOT
BRANCH   1   2
ATOM      2  C10 UNL     1      -9.307  57.443  17.875  0.00  0.00    +0.000 C 
ATOM      3  O2  UNL     1      -9.813  56.864  18.873  0.00  0.00    +0.000 OA
BRANCH   2   5
ATOM      4  C8  UNL     1      -7.481  56.821  16.337  0.00  0.00    +0.000 C 
ATOM      5  C9  UNL     1      -8.743  56.662  16.756  0.00  0.00    +0.000 C 
BRANCH   4  11
ATOM      6  C2  UNL     1      -5.525  55.659  15.211  0.00  0.00    +0.000 A 
ATOM      7  C3  UNL     1      -5.035  54.902  14.127  0.00  0.00    +0.000 A 
ATOM      8  C4  UNL     1      -5.896  54.482  13.105  0.00  0.00    +0.000 A 
ATOM      9  C5  UNL     1      -7.252  54.809  13.161  0.00  0.00    +0.000 A 
ATOM     10  C6  UNL     1      -7.748  55.565  14.223  0.00  0.00    +0.000 A 
ATOM     11  C7  UNL     1      -6.894  56.018  15.241  0.00  0.00    +0.000 A 
BRANCH   6  13
ATOM     12  C1  UNL     1      -3.293  56.289  16.163  0.00  0.00    +0.000 C 
ATOM     13  O1  UNL     1      -4.690  56.038  16.276  0.00  0.00    +0.000 OA
ENDBRANCH   6  13
BRANCH   8  14
ATOM     14  O6  UNL     1      -5.414  53.732  12.034  0.00  0.00    +0.000 OA
ATOM     15  H20 UNL     1      -5.509  54.050  11.077  0.00  0.00    +0.000 HD
ENDBRANCH   8  14
ENDBRANCH   4  11
ENDBRANCH   2   5
ENDBRANCH   1   2
BRANCH   1  16
ATOM     16  C12 UNL     1     -10.265  59.472  16.759  0.00  0.00    +0.000 C 
ATOM     17  O3  UNL     1     -11.496  59.208  16.830  0.00  0.00    +0.000 OA
BRANCH  16  18
ATOM     18  C13 UNL     1      -9.796  60.301  15.627  0.00  0.00    +0.000 C 
ATOM     19  C14 UNL     1      -9.106  61.441  15.784  0.00  0.00    +0.000 C 
BRANCH  19  20
ATOM     20  C15 UNL     1      -8.624  62.268  14.650  0.00  0.00    +0.000 A 
ATOM     21  C16 UNL     1      -7.635  63.262  14.805  0.00  0.00    +0.000 A 
ATOM     22  C17 UNL     1      -7.198  64.018  13.700  0.00  0.00    +0.000 A 
ATOM     23  C18 UNL     1      -7.746  63.767  12.435  0.00  0.00    +0.000 A 
ATOM     24  C19 UNL     1      -8.714  62.769  12.274  0.00  0.00    +0.000 A 
ATOM     25  C20 UNL     1      -9.144  62.022  13.371  0.00  0.00    +0.000 A 
BRANCH  23  26
ATOM     26  O4  UNL     1      -7.318  64.514  11.338  0.00  0.00    +0.000 OA
ATOM     27  H16 UNL     1      -6.707  64.118  10.632  0.00  0.00    +0.000 HD
ENDBRANCH  23  26
BRANCH  22  28
ATOM     28  O5  UNL     1      -6.221  65.020  13.817  0.00  0.00    +0.000 OA
ATOM     29  C21 UNL     1      -5.118  64.971  14.716  0.00  0.00    +0.000 C 
ENDBRANCH  22  28
ENDBRANCH  19  20
ENDBRANCH  16  18
ENDBRANCH   1  16
TORSDOF 10
ENDMDL
MODEL 8
REMARK VINA RESULT:      -3.8      2.442      7.880
REMARK  Name = .\curcumin.pdb
REMARK  12 active torsions:
REMARK  status: ('A' for Active; 'I' for Inactive)
REMARK    1  A    between atoms: C1_1  and  O1_2
REMARK    2  A    between atoms: O1_2  and  C2_3
REMARK    3  A    between atoms: C4_5  and  O6_27
REMARK    4  A    between atoms: C7_8  and  C8_9
REMARK    5  A    between atoms: C9_10  and  C10_11
REMARK    6  A    between atoms: C10_11  and  C11_13
REMARK    7  A    between atoms: C11_13  and  C12_14
REMARK    8  A    between atoms: C12_14  and  C13_16
REMARK    9  A    between atoms: C14_17  and  C15_18
REMARK   10  A    between atoms: C17_20  and  O5_25
REMARK   11  A    between atoms: C18_21  and  O4_24
REMARK   12  A    between atoms: O5_25  and  C21_26
REMARK                            x       y       z     vdW  Elec       q    Type
REMARK                         _______ _______ _______ _____ _____    ______ ____
ROOT
ATOM      1  C11 UNL     1      -8.195  60.805  16.981  0.00  0.00    +0.000 C 
ENDROOT
BRANCH   1   2
ATOM      2  C10 UNL     1      -9.623  60.702  16.523  0.00  0.00    +0.000 C 
ATOM      3  O2  UNL     1     -10.438  60.013  17.194  0.00  0.00    +0.000 OA
BRANCH   2   5
ATOM      4  C8  UNL     1     -10.880  62.497  15.391  0.00  0.00    +0.000 C 
ATOM      5  C9  UNL     1     -10.067  61.435  15.321  0.00  0.00    +0.000 C 
BRANCH   4  11
ATOM      6  C2  UNL     1     -10.713  64.499  13.838  0.00  0.00    +0.000 A 
ATOM      7  C3  UNL     1     -11.177  65.177  12.692  0.00  0.00    +0.000 A 
ATOM      8  C4  UNL     1     -12.187  64.621  11.896  0.00  0.00    +0.000 A 
ATOM      9  C5  UNL     1     -12.737  63.384  12.235  0.00  0.00    +0.000 A 
ATOM     10  C6  UNL     1     -12.294  62.707  13.372  0.00  0.00    +0.000 A 
ATOM     11  C7  UNL     1     -11.303  63.263  14.196  0.00  0.00    +0.000 A 
BRANCH   6  13
ATOM     12  C1  UNL     1      -8.353  65.294  14.125  0.00  0.00    +0.000 C 
ATOM     13  O1  UNL     1      -9.660  65.010  14.614  0.00  0.00    +0.000 OA
ENDBRANCH   6  13
BRANCH   8  14
ATOM     14  O6  UNL     1     -12.644  65.288  10.761  0.00  0.00    +0.000 OA
ATOM     15  H20 UNL     1     -12.008  65.764  10.133  0.00  0.00    +0.000 HD
ENDBRANCH   8  14
ENDBRANCH   4  11
ENDBRANCH   2   5
ENDBRANCH   1   2
BRANCH   1  16
ATOM     16  C12 UNL     1      -7.212  60.439  15.893  0.00  0.00    +0.000 C 
ATOM     17  O3  UNL     1      -6.610  61.345  15.256  0.00  0.00    +0.000 OA
BRANCH  16  18
ATOM     18  C13 UNL     1      -6.923  59.032  15.540  0.00  0.00    +0.000 C 
ATOM     19  C14 UNL     1      -7.872  58.148  15.195  0.00  0.00    +0.000 C 
BRANCH  19  20
ATOM     20  C15 UNL     1      -7.583  56.739  14.828  0.00  0.00    +0.000 A 
ATOM     21  C16 UNL     1      -7.091  56.373  13.559  0.00  0.00    +0.000 A 
ATOM     22  C17 UNL     1      -6.820  55.024  13.255  0.00  0.00    +0.000 A 
ATOM     23  C18 UNL     1      -7.033  54.043  14.233  0.00  0.00    +0.000 A 
ATOM     24  C19 UNL     1      -7.504  54.405  15.500  0.00  0.00    +0.000 A 
ATOM     25  C20 UNL     1      -7.771  55.743  15.797  0.00  0.00    +0.000 A 
BRANCH  23  26
ATOM     26  O4  UNL     1      -6.769  52.707  13.937  0.00  0.00    +0.000 OA
ATOM     27  H16 UNL     1      -6.504  52.412  13.004  0.00  0.00    +0.000 HD
ENDBRANCH  23  26
BRANCH  22  28
ATOM     28  O5  UNL     1      -6.335  54.621  12.000  0.00  0.00    +0.000 OA
ATOM     29  C21 UNL     1      -5.173  53.822  11.802  0.00  0.00    +0.000 C 
ENDBRANCH  22  28
ENDBRANCH  19  20
ENDBRANCH  16  18
ENDBRANCH   1  16
TORSDOF 10
ENDMDL
