MODEL 1
REMARK VINA RESULT:      -0.9      0.000      0.000
REMARK  Name = .\curcumin.pdb
REMARK  12 active torsions:
REMARK  status: ('A' for Active; 'I' for Inactive)
REMARK    1  A    between atoms: C1_1  and  O1_2
REMARK    2  A    between atoms: O1_2  and  C2_3
REMARK    3  A    between atoms: C4_5  and  O6_27
REMARK    4  A    between atoms: C7_8  and  C8_9
REMARK    5  A    between atoms: C9_10  and  C10_11
REMARK    6  A    between atoms: C10_11  and  C11_13
REMARK    7  A    between atoms: C11_13  and  C12_14
REMARK    8  A    between atoms: C12_14  and  C13_16
REMARK    9  A    between atoms: C14_17  and  C15_18
REMARK   10  A    between atoms: C17_20  and  O5_25
REMARK   11  A    between atoms: C18_21  and  O4_24
REMARK   12  A    between atoms: O5_25  and  C21_26
REMARK                            x       y       z     vdW  Elec       q    Type
REMARK                         _______ _______ _______ _____ _____    ______ ____
ROOT
ATOM      1  C11 UNL     1       7.178  72.272 101.262  0.00  0.00    +0.000 C 
ENDROOT
BRANCH   1   2
ATOM      2  C10 UNL     1       8.611  71.818 101.262  0.00  0.00    +0.000 C 
ATOM      3  O2  UNL     1       9.475  72.504 101.871  0.00  0.00    +0.000 OA
BRANCH   2   5
ATOM      4  C8  UNL     1       8.597  69.361 101.045  0.00  0.00    +0.000 C 
ATOM      5  C9  UNL     1       8.985  70.559 100.589  0.00  0.00    +0.000 C 
BRANCH   4  11
ATOM      6  C2  UNL     1       8.711  66.827 100.948  0.00  0.00    +0.000 A 
ATOM      7  C3  UNL     1       9.071  65.664 100.237  0.00  0.00    +0.000 A 
ATOM      8  C4  UNL     1       9.616  65.755  98.950  0.00  0.00    +0.000 A 
ATOM      9  C5  UNL     1       9.800  67.007  98.361  0.00  0.00    +0.000 A 
ATOM     10  C6  UNL     1       9.457  68.167  99.057  0.00  0.00    +0.000 A 
ATOM     11  C7  UNL     1       8.936  68.094 100.359  0.00  0.00    +0.000 A 
BRANCH   6  13
ATOM     12  C1  UNL     1       6.723  66.510 102.442  0.00  0.00    +0.000 C 
ATOM     13  O1  UNL     1       8.108  66.754 102.215  0.00  0.00    +0.000 OA
ENDBRANCH   6  13
BRANCH   8  14
ATOM     14  O6  UNL     1       9.969  64.606  98.245  0.00  0.00    +0.000 OA
ATOM     15  H20 UNL     1      10.938  64.365  98.075  0.00  0.00    +0.000 HD
ENDBRANCH   8  14
ENDBRANCH   4  11
ENDBRANCH   2   5
ENDBRANCH   1   2
BRANCH   1  16
ATOM     16  C12 UNL     1       6.208  71.124 101.106  0.00  0.00    +0.000 C 
ATOM     17  O3  UNL     1       5.193  71.050 101.849  0.00  0.00    +0.000 OA
BRANCH  16  18
ATOM     18  C13 UNL     1       6.408  70.062 100.096  0.00  0.00    +0.000 C 
ATOM     19  C14 UNL     1       5.715  68.912 100.085  0.00  0.00    +0.000 C 
BRANCH  19  20
ATOM     20  C15 UNL     1       5.905  67.851  99.066  0.00  0.00    +0.000 A 
ATOM     21  C16 UNL     1       6.405  68.122  97.776  0.00  0.00    +0.000 A 
ATOM     22  C17 UNL     1       6.581  67.083  96.841  0.00  0.00    +0.000 A 
ATOM     23  C18 UNL     1       6.265  65.767  97.208  0.00  0.00    +0.000 A 
ATOM     24  C19 UNL     1       5.786  65.492  98.493  0.00  0.00    +0.000 A 
ATOM     25  C20 UNL     1       5.614  66.525  99.417  0.00  0.00    +0.000 A 
BRANCH  23  26
ATOM     26  O4  UNL     1       6.435  64.736  96.286  0.00  0.00    +0.000 OA
ATOM     27  H16 UNL     1       7.328  64.567  95.836  0.00  0.00    +0.000 HD
ENDBRANCH  23  26
BRANCH  22  28
ATOM     28  O5  UNL     1       7.069  67.315  95.545  0.00  0.00    +0.000 OA
ATOM     29  C21 UNL     1       8.258  66.737  95.015  0.00  0.00    +0.000 C 
ENDBRANCH  22  28
ENDBRANCH  19  20
ENDBRANCH  16  18
ENDBRANCH   1  16
TORSDOF 10
ENDMDL
