MODEL 1
REMARK VINA RESULT:      -5.1      0.000      0.000
REMARK  Name = .\curcumin.pdb
REMARK  12 active torsions:
REMARK  status: ('A' for Active; 'I' for Inactive)
REMARK    1  A    between atoms: C1_1  and  O1_2
REMARK    2  A    between atoms: O1_2  and  C2_3
REMARK    3  A    between atoms: C4_5  and  O6_27
REMARK    4  A    between atoms: C7_8  and  C8_9
REMARK    5  A    between atoms: C9_10  and  C10_11
REMARK    6  A    between atoms: C10_11  and  C11_13
REMARK    7  A    between atoms: C11_13  and  C12_14
REMARK    8  A    between atoms: C12_14  and  C13_16
REMARK    9  A    between atoms: C14_17  and  C15_18
REMARK   10  A    between atoms: C17_20  and  O5_25
REMARK   11  A    between atoms: C18_21  and  O4_24
REMARK   12  A    between atoms: O5_25  and  C21_26
REMARK                            x       y       z     vdW  Elec       q    Type
REMARK                         _______ _______ _______ _____ _____    ______ ____
ROOT
ATOM      1  C11 UNL     1       0.810  70.431 131.726  0.00  0.00    +0.000 C 
ENDROOT
BRANCH   1   2
ATOM      2  C10 UNL     1       0.659  69.745 133.055  0.00  0.00    +0.000 C 
ATOM      3  O2  UNL     1      -0.458  69.258 133.375  0.00  0.00    +0.000 OA
BRANCH   2   5
ATOM      4  C8  UNL     1       2.742  68.651 133.795  0.00  0.00    +0.000 C 
ATOM      5  C9  UNL     1       1.824  69.612 133.952  0.00  0.00    +0.000 C 
BRANCH   4  11
ATOM      6  C2  UNL     1       4.001  67.605 135.736  0.00  0.00    +0.000 A 
ATOM      7  C3  UNL     1       5.165  67.556 136.531  0.00  0.00    +0.000 A 
ATOM      8  C4  UNL     1       6.255  68.389 136.249  0.00  0.00    +0.000 A 
ATOM      9  C5  UNL     1       6.194  69.271 135.170  0.00  0.00    +0.000 A 
ATOM     10  C6  UNL     1       5.046  69.337 134.381  0.00  0.00    +0.000 A 
ATOM     11  C7  UNL     1       3.933  68.530 134.667  0.00  0.00    +0.000 A 
BRANCH   6  13
ATOM     12  C1  UNL     1       1.997  66.855 137.042  0.00  0.00    +0.000 C 
ATOM     13  O1  UNL     1       2.921  66.736 135.966  0.00  0.00    +0.000 OA
ENDBRANCH   6  13
BRANCH   8  14
ATOM     14  O6  UNL     1       7.407  68.339 137.031  0.00  0.00    +0.000 OA
ATOM     15  H20 UNL     1       7.805  69.174 137.444  0.00  0.00    +0.000 HD
ENDBRANCH   8  14
ENDBRANCH   4  11
ENDBRANCH   2   5
ENDBRANCH   1   2
BRANCH   1  16
ATOM     16  C12 UNL     1       1.652  71.683 131.815  0.00  0.00    +0.000 C 
ATOM     17  O3  UNL     1       1.121  72.778 132.141  0.00  0.00    +0.000 OA
BRANCH  16  18
ATOM     18  C13 UNL     1       3.103  71.672 131.528  0.00  0.00    +0.000 C 
ATOM     19  C14 UNL     1       3.763  70.585 131.099  0.00  0.00    +0.000 C 
BRANCH  19  20
ATOM     20  C15 UNL     1       5.216  70.575 130.799  0.00  0.00    +0.000 A 
ATOM     21  C16 UNL     1       6.014  71.736 130.881  0.00  0.00    +0.000 A 
ATOM     22  C17 UNL     1       7.393  71.680 130.597  0.00  0.00    +0.000 A 
ATOM     23  C18 UNL     1       7.974  70.455 130.243  0.00  0.00    +0.000 A 
ATOM     24  C19 UNL     1       7.189  69.298 130.178  0.00  0.00    +0.000 A 
ATOM     25  C20 UNL     1       5.823  69.357 130.460  0.00  0.00    +0.000 A 
BRANCH  23  26
ATOM     26  O4  UNL     1       9.337  70.395 129.960  0.00  0.00    +0.000 OA
ATOM     27  H16 UNL     1       9.688  70.505 129.014  0.00  0.00    +0.000 HD
ENDBRANCH  23  26
BRANCH  22  28
ATOM     28  O5  UNL     1       8.217  72.815 130.661  0.00  0.00    +0.000 OA
ATOM     29  C21 UNL     1       7.981  73.937 131.506  0.00  0.00    +0.000 C 
ENDBRANCH  22  28
ENDBRANCH  19  20
ENDBRANCH  16  18
ENDBRANCH   1  16
TORSDOF 10
ENDMDL
MODEL 2
REMARK VINA RESULT:      -4.7      2.263      5.620
REMARK  Name = .\curcumin.pdb
REMARK  12 active torsions:
REMARK  status: ('A' for Active; 'I' for Inactive)
REMARK    1  A    between atoms: C1_1  and  O1_2
REMARK    2  A    between atoms: O1_2  and  C2_3
REMARK    3  A    between atoms: C4_5  and  O6_27
REMARK    4  A    between atoms: C7_8  and  C8_9
REMARK    5  A    between atoms: C9_10  and  C10_11
REMARK    6  A    between atoms: C10_11  and  C11_13
REMARK    7  A    between atoms: C11_13  and  C12_14
REMARK    8  A    between atoms: C12_14  and  C13_16
REMARK    9  A    between atoms: C14_17  and  C15_18
REMARK   10  A    between atoms: C17_20  and  O5_25
REMARK   11  A    between atoms: C18_21  and  O4_24
REMARK   12  A    between atoms: O5_25  and  C21_26
REMARK                            x       y       z     vdW  Elec       q    Type
REMARK                         _______ _______ _______ _____ _____    ______ ____
ROOT
ATOM      1  C11 UNL     1       7.681  70.102 136.053  0.00  0.00    +0.000 C 
ENDROOT
BRANCH   1   2
ATOM      2  C10 UNL     1       6.696  69.000 135.780  0.00  0.00    +0.000 C 
ATOM      3  O2  UNL     1       6.748  67.942 136.464  0.00  0.00    +0.000 OA
BRANCH   2   5
ATOM      4  C8  UNL     1       5.213  70.389 134.382  0.00  0.00    +0.000 C 
ATOM      5  C9  UNL     1       5.657  69.179 134.747  0.00  0.00    +0.000 C 
BRANCH   4  11
ATOM      6  C2  UNL     1       3.140  71.516 133.446  0.00  0.00    +0.000 A 
ATOM      7  C3  UNL     1       2.203  71.637 132.399  0.00  0.00    +0.000 A 
ATOM      8  C4  UNL     1       2.332  70.868 131.235  0.00  0.00    +0.000 A 
ATOM      9  C5  UNL     1       3.399  69.977 131.106  0.00  0.00    +0.000 A 
ATOM     10  C6  UNL     1       4.328  69.841 132.138  0.00  0.00    +0.000 A 
ATOM     11  C7  UNL     1       4.197  70.583 133.322  0.00  0.00    +0.000 A 
BRANCH   6  13
ATOM     12  C1  UNL     1       2.005  73.233 134.877  0.00  0.00    +0.000 C 
ATOM     13  O1  UNL     1       3.062  72.322 134.594  0.00  0.00    +0.000 OA
ENDBRANCH   6  13
BRANCH   8  14
ATOM     14  O6  UNL     1       1.409  70.988 130.198  0.00  0.00    +0.000 OA
ATOM     15  H20 UNL     1       1.354  71.826 129.631  0.00  0.00    +0.000 HD
ENDBRANCH   8  14
ENDBRANCH   4  11
ENDBRANCH   2   5
ENDBRANCH   1   2
BRANCH   1  16
ATOM     16  C12 UNL     1       8.804  70.137 135.042  0.00  0.00    +0.000 C 
ATOM     17  O3  UNL     1       9.899  69.567 135.295  0.00  0.00    +0.000 OA
BRANCH  16  18
ATOM     18  C13 UNL     1       8.664  70.828 133.741  0.00  0.00    +0.000 C 
ATOM     19  C14 UNL     1       8.252  70.215 132.620  0.00  0.00    +0.000 C 
BRANCH  19  20
ATOM     20  C15 UNL     1       8.100  70.908 131.317  0.00  0.00    +0.000 A 
ATOM     21  C16 UNL     1       8.712  70.441 130.136  0.00  0.00    +0.000 A 
ATOM     22  C17 UNL     1       8.532  71.124 128.916  0.00  0.00    +0.000 A 
ATOM     23  C18 UNL     1       7.727  72.271 128.882  0.00  0.00    +0.000 A 
ATOM     24  C19 UNL     1       7.104  72.726 130.049  0.00  0.00    +0.000 A 
ATOM     25  C20 UNL     1       7.283  72.047 131.255  0.00  0.00    +0.000 A 
BRANCH  23  26
ATOM     26  O4  UNL     1       7.548  72.951 127.679  0.00  0.00    +0.000 OA
ATOM     27  H16 UNL     1       8.235  73.614 127.336  0.00  0.00    +0.000 HD
ENDBRANCH  23  26
BRANCH  22  28
ATOM     28  O5  UNL     1       9.131  70.694 127.721  0.00  0.00    +0.000 OA
ATOM     29  C21 UNL     1       9.510  69.349 127.447  0.00  0.00    +0.000 C 
ENDBRANCH  22  28
ENDBRANCH  19  20
ENDBRANCH  16  18
ENDBRANCH   1  16
TORSDOF 10
ENDMDL
MODEL 3
REMARK VINA RESULT:      -4.7      1.940      5.560
REMARK  Name = .\curcumin.pdb
REMARK  12 active torsions:
REMARK  status: ('A' for Active; 'I' for Inactive)
REMARK    1  A    between atoms: C1_1  and  O1_2
REMARK    2  A    between atoms: O1_2  and  C2_3
REMARK    3  A    between atoms: C4_5  and  O6_27
REMARK    4  A    between atoms: C7_8  and  C8_9
REMARK    5  A    between atoms: C9_10  and  C10_11
REMARK    6  A    between atoms: C10_11  and  C11_13
REMARK    7  A    between atoms: C11_13  and  C12_14
REMARK    8  A    between atoms: C12_14  and  C13_16
REMARK    9  A    between atoms: C14_17  and  C15_18
REMARK   10  A    between atoms: C17_20  and  O5_25
REMARK   11  A    between atoms: C18_21  and  O4_24
REMARK   12  A    between atoms: O5_25  and  C21_26
REMARK                            x       y       z     vdW  Elec       q    Type
REMARK                         _______ _______ _______ _____ _____    ______ ____
ROOT
ATOM      1  C11 UNL     1       2.273  66.244 135.623  0.00  0.00    +0.000 C 
ENDROOT
BRANCH   1   2
ATOM      2  C10 UNL     1       0.977  66.927 135.288  0.00  0.00    +0.000 C 
ATOM      3  O2  UNL     1      -0.107  66.302 135.437  0.00  0.00    +0.000 OA
BRANCH   2   5
ATOM      4  C8  UNL     1       1.525  68.701 133.664  0.00  0.00    +0.000 C 
ATOM      5  C9  UNL     1       0.981  68.331 134.830  0.00  0.00    +0.000 C 
BRANCH   4  11
ATOM      6  C2  UNL     1       2.283  70.533 132.079  0.00  0.00    +0.000 A 
ATOM      7  C3  UNL     1       2.218  71.884 131.680  0.00  0.00    +0.000 A 
ATOM      8  C4  UNL     1       1.370  72.782 132.340  0.00  0.00    +0.000 A 
ATOM      9  C5  UNL     1       0.576  72.337 133.398  0.00  0.00    +0.000 A 
ATOM     10  C6  UNL     1       0.637  71.005 133.809  0.00  0.00    +0.000 A 
ATOM     11  C7  UNL     1       1.503  70.099 133.177  0.00  0.00    +0.000 A 
BRANCH   6  13
ATOM     12  C1  UNL     1       4.432  69.828 130.996  0.00  0.00    +0.000 C 
ATOM     13  O1  UNL     1       3.082  69.604 131.391  0.00  0.00    +0.000 OA
ENDBRANCH   6  13
BRANCH   8  14
ATOM     14  O6  UNL     1       1.302  74.116 131.944  0.00  0.00    +0.000 OA
ATOM     15  H20 UNL     1       1.675  74.426 131.055  0.00  0.00    +0.000 HD
ENDBRANCH   8  14
ENDBRANCH   4  11
ENDBRANCH   2   5
ENDBRANCH   1   2
BRANCH   1  16
ATOM     16  C12 UNL     1       3.021  66.938 136.738  0.00  0.00    +0.000 C 
ATOM     17  O3  UNL     1       2.520  66.995 137.893  0.00  0.00    +0.000 OA
BRANCH  16  18
ATOM     18  C13 UNL     1       4.343  67.565 136.522  0.00  0.00    +0.000 C 
ATOM     19  C14 UNL     1       4.615  68.377 135.489  0.00  0.00    +0.000 C 
BRANCH  19  20
ATOM     20  C15 UNL     1       5.937  69.017 135.277  0.00  0.00    +0.000 A 
ATOM     21  C16 UNL     1       6.324  69.559 134.034  0.00  0.00    +0.000 A 
ATOM     22  C17 UNL     1       7.585  70.168 133.878  0.00  0.00    +0.000 A 
ATOM     23  C18 UNL     1       8.453  70.243 134.976  0.00  0.00    +0.000 A 
ATOM     24  C19 UNL     1       8.065  69.722 136.215  0.00  0.00    +0.000 A 
ATOM     25  C20 UNL     1       6.814  69.120 136.366  0.00  0.00    +0.000 A 
BRANCH  23  26
ATOM     26  O4  UNL     1       9.703  70.842 134.826  0.00  0.00    +0.000 OA
ATOM     27  H16 UNL     1      10.302  71.028 135.624  0.00  0.00    +0.000 HD
ENDBRANCH  23  26
BRANCH  22  28
ATOM     28  O5  UNL     1       8.009  70.712 132.655  0.00  0.00    +0.000 OA
ATOM     29  C21 UNL     1       8.148  69.971 131.447  0.00  0.00    +0.000 C 
ENDBRANCH  22  28
ENDBRANCH  19  20
ENDBRANCH  16  18
ENDBRANCH   1  16
TORSDOF 10
ENDMDL
MODEL 4
REMARK VINA RESULT:      -4.6      1.587      2.053
REMARK  Name = .\curcumin.pdb
REMARK  12 active torsions:
REMARK  status: ('A' for Active; 'I' for Inactive)
REMARK    1  A    between atoms: C1_1  and  O1_2
REMARK    2  A    between atoms: O1_2  and  C2_3
REMARK    3  A    between atoms: C4_5  and  O6_27
REMARK    4  A    between atoms: C7_8  and  C8_9
REMARK    5  A    between atoms: C9_10  and  C10_11
REMARK    6  A    between atoms: C10_11  and  C11_13
REMARK    7  A    between atoms: C11_13  and  C12_14
REMARK    8  A    between atoms: C12_14  and  C13_16
REMARK    9  A    between atoms: C14_17  and  C15_18
REMARK   10  A    between atoms: C17_20  and  O5_25
REMARK   11  A    between atoms: C18_21  and  O4_24
REMARK   12  A    between atoms: O5_25  and  C21_26
REMARK                            x       y       z     vdW  Elec       q    Type
REMARK                         _______ _______ _______ _____ _____    ______ ____
ROOT
ATOM      1  C11 UNL     1       0.762  70.310 131.409  0.00  0.00    +0.000 C 
ENDROOT
BRANCH   1   2
ATOM      2  C10 UNL     1       0.673  69.565 132.711  0.00  0.00    +0.000 C 
ATOM      3  O2  UNL     1      -0.458  69.346 133.221  0.00  0.00    +0.000 OA
BRANCH   2   5
ATOM      4  C8  UNL     1       2.336  69.540 134.533  0.00  0.00    +0.000 C 
ATOM      5  C9  UNL     1       1.901  69.064 133.359  0.00  0.00    +0.000 C 
BRANCH   4  11
ATOM      6  C2  UNL     1       4.551  69.871 135.729  0.00  0.00    +0.000 A 
ATOM      7  C3  UNL     1       5.682  69.302 136.350  0.00  0.00    +0.000 A 
ATOM      8  C4  UNL     1       5.798  67.913 136.482  0.00  0.00    +0.000 A 
ATOM      9  C5  UNL     1       4.785  67.082 136.001  0.00  0.00    +0.000 A 
ATOM     10  C6  UNL     1       3.666  67.631 135.375  0.00  0.00    +0.000 A 
ATOM     11  C7  UNL     1       3.546  69.020 135.210  0.00  0.00    +0.000 A 
BRANCH   6  13
ATOM     12  C1  UNL     1       3.880  72.090 136.685  0.00  0.00    +0.000 C 
ATOM     13  O1  UNL     1       4.387  71.264 135.642  0.00  0.00    +0.000 OA
ENDBRANCH   6  13
BRANCH   8  14
ATOM     14  O6  UNL     1       6.913  67.349 137.099  0.00  0.00    +0.000 OA
ATOM     15  H20 UNL     1       7.498  66.673 136.623  0.00  0.00    +0.000 HD
ENDBRANCH   8  14
ENDBRANCH   4  11
ENDBRANCH   2   5
ENDBRANCH   1   2
BRANCH   1  16
ATOM     16  C12 UNL     1       1.836  71.374 131.424  0.00  0.00    +0.000 C 
ATOM     17  O3  UNL     1       1.533  72.572 131.671  0.00  0.00    +0.000 OA
BRANCH  16  18
ATOM     18  C13 UNL     1       3.256  71.057 131.156  0.00  0.00    +0.000 C 
ATOM     19  C14 UNL     1       4.261  71.429 131.964  0.00  0.00    +0.000 C 
BRANCH  19  20
ATOM     20  C15 UNL     1       5.684  71.102 131.703  0.00  0.00    +0.000 A 
ATOM     21  C16 UNL     1       6.416  71.692 130.652  0.00  0.00    +0.000 A 
ATOM     22  C17 UNL     1       7.770  71.361 130.445  0.00  0.00    +0.000 A 
ATOM     23  C18 UNL     1       8.393  70.445 131.304  0.00  0.00    +0.000 A 
ATOM     24  C19 UNL     1       7.675  69.872 132.359  0.00  0.00    +0.000 A 
ATOM     25  C20 UNL     1       6.334  70.202 132.561  0.00  0.00    +0.000 A 
BRANCH  23  26
ATOM     26  O4  UNL     1       9.731  70.113 131.102  0.00  0.00    +0.000 OA
ATOM     27  H16 UNL     1      10.388  70.062 131.874  0.00  0.00    +0.000 HD
ENDBRANCH  23  26
BRANCH  22  28
ATOM     28  O5  UNL     1       8.528  71.922 129.405  0.00  0.00    +0.000 OA
ATOM     29  C21 UNL     1       7.978  72.591 128.275  0.00  0.00    +0.000 C 
ENDBRANCH  22  28
ENDBRANCH  19  20
ENDBRANCH  16  18
ENDBRANCH   1  16
TORSDOF 10
ENDMDL
MODEL 5
REMARK VINA RESULT:      -4.6      1.677      5.467
REMARK  Name = .\curcumin.pdb
REMARK  12 active torsions:
REMARK  status: ('A' for Active; 'I' for Inactive)
REMARK    1  A    between atoms: C1_1  and  O1_2
REMARK    2  A    between atoms: O1_2  and  C2_3
REMARK    3  A    between atoms: C4_5  and  O6_27
REMARK    4  A    between atoms: C7_8  and  C8_9
REMARK    5  A    between atoms: C9_10  and  C10_11
REMARK    6  A    between atoms: C10_11  and  C11_13
REMARK    7  A    between atoms: C11_13  and  C12_14
REMARK    8  A    between atoms: C12_14  and  C13_16
REMARK    9  A    between atoms: C14_17  and  C15_18
REMARK   10  A    between atoms: C17_20  and  O5_25
REMARK   11  A    between atoms: C18_21  and  O4_24
REMARK   12  A    between atoms: O5_25  and  C21_26
REMARK                            x       y       z     vdW  Elec       q    Type
REMARK                         _______ _______ _______ _____ _____    ______ ____
ROOT
ATOM      1  C11 UNL     1       1.492  70.505 133.073  0.00  0.00    +0.000 C 
ENDROOT
BRANCH   1   2
ATOM      2  C10 UNL     1       1.912  70.593 131.632  0.00  0.00    +0.000 C 
ATOM      3  O2  UNL     1       1.092  71.022 130.776  0.00  0.00    +0.000 OA
BRANCH   2   5
ATOM      4  C8  UNL     1       4.299  71.090 131.265  0.00  0.00    +0.000 C 
ATOM      5  C9  UNL     1       3.284  70.217 131.240  0.00  0.00    +0.000 C 
BRANCH   4  11
ATOM      6  C2  UNL     1       6.770  71.619 131.020  0.00  0.00    +0.000 A 
ATOM      7  C3  UNL     1       8.063  71.194 130.650  0.00  0.00    +0.000 A 
ATOM      8  C4  UNL     1       8.282  69.883 130.208  0.00  0.00    +0.000 A 
ATOM      9  C5  UNL     1       7.215  68.987 130.137  0.00  0.00    +0.000 A 
ATOM     10  C6  UNL     1       5.929  69.397 130.490  0.00  0.00    +0.000 A 
ATOM     11  C7  UNL     1       5.687  70.715 130.909  0.00  0.00    +0.000 A 
BRANCH   6  13
ATOM     12  C1  UNL     1       6.932  74.117 130.875  0.00  0.00    +0.000 C 
ATOM     13  O1  UNL     1       6.541  72.911 131.523  0.00  0.00    +0.000 OA
ENDBRANCH   6  13
BRANCH   8  14
ATOM     14  O6  UNL     1       9.559  69.460 129.846  0.00  0.00    +0.000 OA
ATOM     15  H20 UNL     1       9.763  69.129 128.910  0.00  0.00    +0.000 HD
ENDBRANCH   8  14
ENDBRANCH   4  11
ENDBRANCH   2   5
ENDBRANCH   1   2
BRANCH   1  16
ATOM     16  C12 UNL     1       2.248  69.438 133.831  0.00  0.00    +0.000 C 
ATOM     17  O3  UNL     1       1.767  68.278 133.936  0.00  0.00    +0.000 OA
BRANCH  16  18
ATOM     18  C13 UNL     1       3.556  69.709 134.467  0.00  0.00    +0.000 C 
ATOM     19  C14 UNL     1       4.627  68.913 134.320  0.00  0.00    +0.000 C 
BRANCH  19  20
ATOM     20  C15 UNL     1       5.943  69.188 134.947  0.00  0.00    +0.000 A 
ATOM     21  C16 UNL     1       6.961  69.907 134.286  0.00  0.00    +0.000 A 
ATOM     22  C17 UNL     1       8.193  70.155 134.922  0.00  0.00    +0.000 A 
ATOM     23  C18 UNL     1       8.399  69.692 136.228  0.00  0.00    +0.000 A 
ATOM     24  C19 UNL     1       7.385  68.995 136.894  0.00  0.00    +0.000 A 
ATOM     25  C20 UNL     1       6.165  68.750 136.261  0.00  0.00    +0.000 A 
BRANCH  23  26
ATOM     26  O4  UNL     1       9.617  69.934 136.861  0.00  0.00    +0.000 OA
ATOM     27  H16 UNL     1       9.671  70.118 137.857  0.00  0.00    +0.000 HD
ENDBRANCH  23  26
BRANCH  22  28
ATOM     28  O5  UNL     1       9.232  70.861 134.292  0.00  0.00    +0.000 OA
ATOM     29  C21 UNL     1       9.265  72.275 134.130  0.00  0.00    +0.000 C 
ENDBRANCH  22  28
ENDBRANCH  19  20
ENDBRANCH  16  18
ENDBRANCH   1  16
TORSDOF 10
ENDMDL
MODEL 6
REMARK VINA RESULT:      -4.5      0.824      1.831
REMARK  Name = .\curcumin.pdb
REMARK  12 active torsions:
REMARK  status: ('A' for Active; 'I' for Inactive)
REMARK    1  A    between atoms: C1_1  and  O1_2
REMARK    2  A    between atoms: O1_2  and  C2_3
REMARK    3  A    between atoms: C4_5  and  O6_27
REMARK    4  A    between atoms: C7_8  and  C8_9
REMARK    5  A    between atoms: C9_10  and  C10_11
REMARK    6  A    between atoms: C10_11  and  C11_13
REMARK    7  A    between atoms: C11_13  and  C12_14
REMARK    8  A    between atoms: C12_14  and  C13_16
REMARK    9  A    between atoms: C14_17  and  C15_18
REMARK   10  A    between atoms: C17_20  and  O5_25
REMARK   11  A    between atoms: C18_21  and  O4_24
REMARK   12  A    between atoms: O5_25  and  C21_26
REMARK                            x       y       z     vdW  Elec       q    Type
REMARK                         _______ _______ _______ _____ _____    ______ ____
ROOT
ATOM      1  C11 UNL     1       1.010  70.383 131.460  0.00  0.00    +0.000 C 
ENDROOT
BRANCH   1   2
ATOM      2  C10 UNL     1       0.798  69.504 132.660  0.00  0.00    +0.000 C 
ATOM      3  O2  UNL     1      -0.377  69.243 133.034  0.00  0.00    +0.000 OA
BRANCH   2   5
ATOM      4  C8  UNL     1       2.526  69.519 134.419  0.00  0.00    +0.000 C 
ATOM      5  C9  UNL     1       1.959  68.923 133.363  0.00  0.00    +0.000 C 
BRANCH   4  11
ATOM      6  C2  UNL     1       3.503  67.903 136.116  0.00  0.00    +0.000 A 
ATOM      7  C3  UNL     1       4.637  67.398 136.785  0.00  0.00    +0.000 A 
ATOM      8  C4  UNL     1       5.916  67.882 136.483  0.00  0.00    +0.000 A 
ATOM      9  C5  UNL     1       6.074  68.867 135.508  0.00  0.00    +0.000 A 
ATOM     10  C6  UNL     1       4.960  69.382 134.844  0.00  0.00    +0.000 A 
ATOM     11  C7  UNL     1       3.668  68.929 135.155  0.00  0.00    +0.000 A 
BRANCH   6  13
ATOM     12  C1  UNL     1       1.942  66.244 137.162  0.00  0.00    +0.000 C 
ATOM     13  O1  UNL     1       2.219  67.388 136.361  0.00  0.00    +0.000 OA
ENDBRANCH   6  13
BRANCH   8  14
ATOM     14  O6  UNL     1       7.038  67.382 137.141  0.00  0.00    +0.000 OA
ATOM     15  H20 UNL     1       7.976  67.666 136.883  0.00  0.00    +0.000 HD
ENDBRANCH   8  14
ENDBRANCH   4  11
ENDBRANCH   2   5
ENDBRANCH   1   2
BRANCH   1  16
ATOM     16  C12 UNL     1       1.724  71.670 131.806  0.00  0.00    +0.000 C 
ATOM     17  O3  UNL     1       1.094  72.612 132.357  0.00  0.00    +0.000 OA
BRANCH  16  18
ATOM     18  C13 UNL     1       3.161  71.870 131.516  0.00  0.00    +0.000 C 
ATOM     19  C14 UNL     1       3.995  70.871 131.192  0.00  0.00    +0.000 C 
BRANCH  19  20
ATOM     20  C15 UNL     1       5.434  71.071 130.889  0.00  0.00    +0.000 A 
ATOM     21  C16 UNL     1       6.232  70.063 130.310  0.00  0.00    +0.000 A 
ATOM     22  C17 UNL     1       7.593  70.298 130.029  0.00  0.00    +0.000 A 
ATOM     23  C18 UNL     1       8.148  71.552 130.318  0.00  0.00    +0.000 A 
ATOM     24  C19 UNL     1       7.354  72.560 130.875  0.00  0.00    +0.000 A 
ATOM     25  C20 UNL     1       6.006  72.324 131.152  0.00  0.00    +0.000 A 
BRANCH  23  26
ATOM     26  O4  UNL     1       9.494  71.789 130.043  0.00  0.00    +0.000 OA
ATOM     27  H16 UNL     1       9.919  72.695 130.210  0.00  0.00    +0.000 HD
ENDBRANCH  23  26
BRANCH  22  28
ATOM     28  O5  UNL     1       8.421  69.317 129.460  0.00  0.00    +0.000 OA
ATOM     29  C21 UNL     1       8.260  67.915 129.651  0.00  0.00    +0.000 C 
ENDBRANCH  22  28
ENDBRANCH  19  20
ENDBRANCH  16  18
ENDBRANCH   1  16
TORSDOF 10
ENDMDL
MODEL 7
REMARK VINA RESULT:      -4.3      2.094      7.498
REMARK  Name = .\curcumin.pdb
REMARK  12 active torsions:
REMARK  status: ('A' for Active; 'I' for Inactive)
REMARK    1  A    between atoms: C1_1  and  O1_2
REMARK    2  A    between atoms: O1_2  and  C2_3
REMARK    3  A    between atoms: C4_5  and  O6_27
REMARK    4  A    between atoms: C7_8  and  C8_9
REMARK    5  A    between atoms: C9_10  and  C10_11
REMARK    6  A    between atoms: C10_11  and  C11_13
REMARK    7  A    between atoms: C11_13  and  C12_14
REMARK    8  A    between atoms: C12_14  and  C13_16
REMARK    9  A    between atoms: C14_17  and  C15_18
REMARK   10  A    between atoms: C17_20  and  O5_25
REMARK   11  A    between atoms: C18_21  and  O4_24
REMARK   12  A    between atoms: O5_25  and  C21_26
REMARK                            x       y       z     vdW  Elec       q    Type
REMARK                         _______ _______ _______ _____ _____    ______ ____
ROOT
ATOM      1  C11 UNL     1       8.959  70.075 135.603  0.00  0.00    +0.000 C 
ENDROOT
BRANCH   1   2
ATOM      2  C10 UNL     1       9.361  71.500 135.345  0.00  0.00    +0.000 C 
ATOM      3  O2  UNL     1      10.031  72.119 136.214  0.00  0.00    +0.000 OA
BRANCH   2   5
ATOM      4  C8  UNL     1       8.763  71.443 132.953  0.00  0.00    +0.000 C 
ATOM      5  C9  UNL     1       9.006  72.146 134.066  0.00  0.00    +0.000 C 
BRANCH   4  11
ATOM      6  C2  UNL     1       8.180  71.335 130.484  0.00  0.00    +0.000 A 
ATOM      7  C3  UNL     1       7.818  72.011 129.301  0.00  0.00    +0.000 A 
ATOM      8  C4  UNL     1       7.617  73.397 129.306  0.00  0.00    +0.000 A 
ATOM      9  C5  UNL     1       7.769  74.117 130.491  0.00  0.00    +0.000 A 
ATOM     10  C6  UNL     1       8.137  73.462 131.667  0.00  0.00    +0.000 A 
ATOM     11  C7  UNL     1       8.370  72.078 131.674  0.00  0.00    +0.000 A 
BRANCH   6  13
ATOM     12  C1  UNL     1       7.667  69.033 129.634  0.00  0.00    +0.000 C 
ATOM     13  O1  UNL     1       8.327  69.938 130.513  0.00  0.00    +0.000 OA
ENDBRANCH   6  13
BRANCH   8  14
ATOM     14  O6  UNL     1       7.255  74.066 128.138  0.00  0.00    +0.000 OA
ATOM     15  H20 UNL     1       6.559  74.802 128.142  0.00  0.00    +0.000 HD
ENDBRANCH   8  14
ENDBRANCH   4  11
ENDBRANCH   2   5
ENDBRANCH   1   2
BRANCH   1  16
ATOM     16  C12 UNL     1       7.586  69.967 136.226  0.00  0.00    +0.000 C 
ATOM     17  O3  UNL     1       7.469  69.826 137.473  0.00  0.00    +0.000 OA
BRANCH  16  18
ATOM     18  C13 UNL     1       6.351  70.021 135.413  0.00  0.00    +0.000 C 
ATOM     19  C14 UNL     1       6.285  69.598 134.141  0.00  0.00    +0.000 C 
BRANCH  19  20
ATOM     20  C15 UNL     1       5.045  69.640 133.328  0.00  0.00    +0.000 A 
ATOM     21  C16 UNL     1       3.818  69.121 133.792  0.00  0.00    +0.000 A 
ATOM     22  C17 UNL     1       2.661  69.191 132.992  0.00  0.00    +0.000 A 
ATOM     23  C18 UNL     1       2.733  69.792 131.728  0.00  0.00    +0.000 A 
ATOM     24  C19 UNL     1       3.945  70.324 131.272  0.00  0.00    +0.000 A 
ATOM     25  C20 UNL     1       5.089  70.254 132.068  0.00  0.00    +0.000 A 
BRANCH  23  26
ATOM     26  O4  UNL     1       1.592  69.861 130.931  0.00  0.00    +0.000 OA
ATOM     27  H16 UNL     1       1.629  70.206 129.978  0.00  0.00    +0.000 HD
ENDBRANCH  23  26
BRANCH  22  28
ATOM     28  O5  UNL     1       1.424  68.679 133.417  0.00  0.00    +0.000 OA
ATOM     29  C21 UNL     1       1.267  67.538 134.254  0.00  0.00    +0.000 C 
ENDBRANCH  22  28
ENDBRANCH  19  20
ENDBRANCH  16  18
ENDBRANCH   1  16
TORSDOF 10
ENDMDL
MODEL 8
REMARK VINA RESULT:      -4.2      1.635      5.035
REMARK  Name = .\curcumin.pdb
REMARK  12 active torsions:
REMARK  status: ('A' for Active; 'I' for Inactive)
REMARK    1  A    between atoms: C1_1  and  O1_2
REMARK    2  A    between atoms: O1_2  and  C2_3
REMARK    3  A    between atoms: C4_5  and  O6_27
REMARK    4  A    between atoms: C7_8  and  C8_9
REMARK    5  A    between atoms: C9_10  and  C10_11
REMARK    6  A    between atoms: C10_11  and  C11_13
REMARK    7  A    between atoms: C11_13  and  C12_14
REMARK    8  A    between atoms: C12_14  and  C13_16
REMARK    9  A    between atoms: C14_17  and  C15_18
REMARK   10  A    between atoms: C17_20  and  O5_25
REMARK   11  A    between atoms: C18_21  and  O4_24
REMARK   12  A    between atoms: O5_25  and  C21_26
REMARK                            x       y       z     vdW  Elec       q    Type
REMARK                         _______ _______ _______ _____ _____    ______ ____
ROOT
ATOM      1  C11 UNL     1       5.807  68.110 136.613  0.00  0.00    +0.000 C 
ENDROOT
BRANCH   1   2
ATOM      2  C10 UNL     1       4.346  68.466 136.644  0.00  0.00    +0.000 C 
ATOM      3  O2  UNL     1       3.668  68.201 137.673  0.00  0.00    +0.000 OA
BRANCH   2   5
ATOM      4  C8  UNL     1       3.420  68.513 134.358  0.00  0.00    +0.000 C 
ATOM      5  C9  UNL     1       3.731  69.154 135.492  0.00  0.00    +0.000 C 
BRANCH   4  11
ATOM      6  C2  UNL     1       1.365  69.195 133.033  0.00  0.00    +0.000 A 
ATOM      7  C3  UNL     1       0.818  69.846 131.908  0.00  0.00    +0.000 A 
ATOM      8  C4  UNL     1       1.649  70.502 130.991  0.00  0.00    +0.000 A 
ATOM      9  C5  UNL     1       3.030  70.518 131.193  0.00  0.00    +0.000 A 
ATOM     10  C6  UNL     1       3.585  69.870 132.297  0.00  0.00    +0.000 A 
ATOM     11  C7  UNL     1       2.769  69.185 133.211  0.00  0.00    +0.000 A 
BRANCH   6  13
ATOM     12  C1  UNL     1      -0.221  69.284 134.973  0.00  0.00    +0.000 C 
ATOM     13  O1  UNL     1       0.544  68.585 133.996  0.00  0.00    +0.000 OA
ENDBRANCH   6  13
BRANCH   8  14
ATOM     14  O6  UNL     1       1.110  71.148 129.880  0.00  0.00    +0.000 OA
ATOM     15  H20 UNL     1       0.982  72.153 129.861  0.00  0.00    +0.000 HD
ENDBRANCH   8  14
ENDBRANCH   4  11
ENDBRANCH   2   5
ENDBRANCH   1   2
BRANCH   1  16
ATOM     16  C12 UNL     1       6.691  69.319 136.409  0.00  0.00    +0.000 C 
ATOM     17  O3  UNL     1       6.874  70.133 137.353  0.00  0.00    +0.000 OA
BRANCH  16  18
ATOM     18  C13 UNL     1       7.363  69.588 135.119  0.00  0.00    +0.000 C 
ATOM     19  C14 UNL     1       6.758  70.190 134.083  0.00  0.00    +0.000 C 
BRANCH  19  20
ATOM     20  C15 UNL     1       7.433  70.472 132.792  0.00  0.00    +0.000 A 
ATOM     21  C16 UNL     1       7.228  69.682 131.642  0.00  0.00    +0.000 A 
ATOM     22  C17 UNL     1       7.882  69.992 130.433  0.00  0.00    +0.000 A 
ATOM     23  C18 UNL     1       8.732  71.104 130.376  0.00  0.00    +0.000 A 
ATOM     24  C19 UNL     1       8.923  71.901 131.510  0.00  0.00    +0.000 A 
ATOM     25  C20 UNL     1       8.274  71.592 132.706  0.00  0.00    +0.000 A 
BRANCH  23  26
ATOM     26  O4  UNL     1       9.383  71.413 129.183  0.00  0.00    +0.000 OA
ATOM     27  H16 UNL     1       9.071  71.035 128.294  0.00  0.00    +0.000 HD
ENDBRANCH  23  26
BRANCH  22  28
ATOM     28  O5  UNL     1       7.708  69.224 129.270  0.00  0.00    +0.000 OA
ATOM     29  C21 UNL     1       8.384  67.999 129.003  0.00  0.00    +0.000 C 
ENDBRANCH  22  28
ENDBRANCH  19  20
ENDBRANCH  16  18
ENDBRANCH   1  16
TORSDOF 10
ENDMDL
MODEL 9
REMARK VINA RESULT:      -4.0      2.409      6.716
REMARK  Name = .\curcumin.pdb
REMARK  12 active torsions:
REMARK  status: ('A' for Active; 'I' for Inactive)
REMARK    1  A    between atoms: C1_1  and  O1_2
REMARK    2  A    between atoms: O1_2  and  C2_3
REMARK    3  A    between atoms: C4_5  and  O6_27
REMARK    4  A    between atoms: C7_8  and  C8_9
REMARK    5  A    between atoms: C9_10  and  C10_11
REMARK    6  A    between atoms: C10_11  and  C11_13
REMARK    7  A    between atoms: C11_13  and  C12_14
REMARK    8  A    between atoms: C12_14  and  C13_16
REMARK    9  A    between atoms: C14_17  and  C15_18
REMARK   10  A    between atoms: C17_20  and  O5_25
REMARK   11  A    between atoms: C18_21  and  O4_24
REMARK   12  A    between atoms: O5_25  and  C21_26
REMARK                            x       y       z     vdW  Elec       q    Type
REMARK                         _______ _______ _______ _____ _____    ______ ____
ROOT
ATOM      1  C11 UNL     1       7.235  71.030 129.666  0.00  0.00    +0.000 C 
ENDROOT
BRANCH   1   2
ATOM      2  C10 UNL     1       8.699  71.226 129.944  0.00  0.00    +0.000 C 
ATOM      3  O2  UNL     1       9.487  71.434 128.983  0.00  0.00    +0.000 OA
BRANCH   2   5
ATOM      4  C8  UNL     1       8.549  71.839 132.328  0.00  0.00    +0.000 C 
ATOM      5  C9  UNL     1       9.193  71.214 131.335  0.00  0.00    +0.000 C 
BRANCH   4  11
ATOM      6  C2  UNL     1       8.633  70.782 134.635  0.00  0.00    +0.000 A 
ATOM      7  C3  UNL     1       9.108  70.821 135.962  0.00  0.00    +0.000 A 
ATOM      8  C4  UNL     1       9.974  71.841 136.378  0.00  0.00    +0.000 A 
ATOM      9  C5  UNL     1      10.376  72.823 135.473  0.00  0.00    +0.000 A 
ATOM     10  C6  UNL     1       9.906  72.802 134.160  0.00  0.00    +0.000 A 
ATOM     11  C7  UNL     1       9.016  71.803 133.733  0.00  0.00    +0.000 A 
BRANCH   6  13
ATOM     12  C1  UNL     1       6.435  69.582 134.508  0.00  0.00    +0.000 C 
ATOM     13  O1  UNL     1       7.813  69.734 134.182  0.00  0.00    +0.000 OA
ENDBRANCH   6  13
BRANCH   8  14
ATOM     14  O6  UNL     1      10.447  71.879 137.688  0.00  0.00    +0.000 OA
ATOM     15  H20 UNL     1      10.898  71.078 138.114  0.00  0.00    +0.000 HD
ENDBRANCH   8  14
ENDBRANCH   4  11
ENDBRANCH   2   5
ENDBRANCH   1   2
BRANCH   1  16
ATOM     16  C12 UNL     1       6.759  69.642 130.028  0.00  0.00    +0.000 C 
ATOM     17  O3  UNL     1       7.447  68.636 129.707  0.00  0.00    +0.000 OA
BRANCH  16  18
ATOM     18  C13 UNL     1       5.493  69.414 130.758  0.00  0.00    +0.000 C 
ATOM     19  C14 UNL     1       4.496  70.311 130.806  0.00  0.00    +0.000 C 
BRANCH  19  20
ATOM     20  C15 UNL     1       3.220  70.080 131.527  0.00  0.00    +0.000 A 
ATOM     21  C16 UNL     1       3.137  69.261 132.673  0.00  0.00    +0.000 A 
ATOM     22  C17 UNL     1       1.906  69.077 133.334  0.00  0.00    +0.000 A 
ATOM     23  C18 UNL     1       0.761  69.724 132.851  0.00  0.00    +0.000 A 
ATOM     24  C19 UNL     1       0.845  70.552 131.726  0.00  0.00    +0.000 A 
ATOM     25  C20 UNL     1       2.065  70.733 131.073  0.00  0.00    +0.000 A 
BRANCH  23  26
ATOM     26  O4  UNL     1      -0.458  69.543 133.501  0.00  0.00    +0.000 OA
ATOM     27  H16 UNL     1      -0.643  68.720 134.065  0.00  0.00    +0.000 HD
ENDBRANCH  23  26
BRANCH  22  28
ATOM     28  O5  UNL     1       1.783  68.264 134.473  0.00  0.00    +0.000 OA
ATOM     29  C21 UNL     1       1.446  66.881 134.445  0.00  0.00    +0.000 C 
ENDBRANCH  22  28
ENDBRANCH  19  20
ENDBRANCH  16  18
ENDBRANCH   1  16
TORSDOF 10
ENDMDL
