MODEL 1
REMARK VINA RESULT:      71.0      0.000      0.000
REMARK  Name = .\curcumin.pdb
REMARK  12 active torsions:
REMARK  status: ('A' for Active; 'I' for Inactive)
REMARK    1  A    between atoms: C1_1  and  O1_2
REMARK    2  A    between atoms: O1_2  and  C2_3
REMARK    3  A    between atoms: C4_5  and  O6_27
REMARK    4  A    between atoms: C7_8  and  C8_9
REMARK    5  A    between atoms: C9_10  and  C10_11
REMARK    6  A    between atoms: C10_11  and  C11_13
REMARK    7  A    between atoms: C11_13  and  C12_14
REMARK    8  A    between atoms: C12_14  and  C13_16
REMARK    9  A    between atoms: C14_17  and  C15_18
REMARK   10  A    between atoms: C17_20  and  O5_25
REMARK   11  A    between atoms: C18_21  and  O4_24
REMARK   12  A    between atoms: O5_25  and  C21_26
REMARK                            x       y       z     vdW  Elec       q    Type
REMARK                         _______ _______ _______ _____ _____    ______ ____
ROOT
ATOM      1  C11 UNL     1      -1.645  75.505  89.127  0.00  0.00    +0.000 C 
ENDROOT
BRANCH   1   2
ATOM      2  C10 UNL     1      -2.197  75.927  90.460  0.00  0.00    +0.000 C 
ATOM      3  O2  UNL     1      -1.653  75.505  91.516  0.00  0.00    +0.000 OA
BRANCH   2   5
ATOM      4  C8  UNL     1      -3.304  77.988  91.242  0.00  0.00    +0.000 C 
ATOM      5  C9  UNL     1      -3.340  76.859  90.523  0.00  0.00    +0.000 C 
BRANCH   4  11
ATOM      6  C2  UNL     1      -5.775  78.536  91.441  0.00  0.00    +0.000 A 
ATOM      7  C3  UNL     1      -6.796  79.508  91.459  0.00  0.00    +0.000 A 
ATOM      8  C4  UNL     1      -6.484  80.870  91.355  0.00  0.00    +0.000 A 
ATOM      9  C5  UNL     1      -5.152  81.271  91.238  0.00  0.00    +0.000 A 
ATOM     10  C6  UNL     1      -4.133  80.319  91.209  0.00  0.00    +0.000 A 
ATOM     11  C7  UNL     1      -4.430  78.948  91.284  0.00  0.00    +0.000 A 
BRANCH   6  13
ATOM     12  C1  UNL     1      -7.013  76.645  92.525  0.00  0.00    +0.000 C 
ATOM     13  O1  UNL     1      -6.062  77.170  91.605  0.00  0.00    +0.000 OA
ENDBRANCH   6  13
BRANCH   8  14
ATOM     14  O6  UNL     1      -7.491  81.832  91.377  0.00  0.00    +0.000 OA
ATOM     15  H20 UNL     1      -8.024  82.062  90.546  0.00  0.00    +0.000 HD
ENDBRANCH   8  14
ENDBRANCH   4  11
ENDBRANCH   2   5
ENDBRANCH   1   2
BRANCH   1  16
ATOM     16  C12 UNL     1      -2.313  76.218  87.974  0.00  0.00    +0.000 C 
ATOM     17  O3  UNL     1      -1.850  76.100  86.807  0.00  0.00    +0.000 OA
BRANCH  16  18
ATOM     18  C13 UNL     1      -3.510  77.065  88.165  0.00  0.00    +0.000 C 
ATOM     19  C14 UNL     1      -3.454  78.392  88.354  0.00  0.00    +0.000 C 
BRANCH  19  20
ATOM     20  C15 UNL     1      -4.654  79.245  88.534  0.00  0.00    +0.000 A 
ATOM     21  C16 UNL     1      -5.625  78.987  89.523  0.00  0.00    +0.000 A 
ATOM     22  C17 UNL     1      -6.746  79.829  89.666  0.00  0.00    +0.000 A 
ATOM     23  C18 UNL     1      -6.885  80.939  88.822  0.00  0.00    +0.000 A 
ATOM     24  C19 UNL     1      -5.914  81.209  87.852  0.00  0.00    +0.000 A 
ATOM     25  C20 UNL     1      -4.804  80.373  87.713  0.00  0.00    +0.000 A 
BRANCH  23  26
ATOM     26  O4  UNL     1      -7.992  81.774  88.959  0.00  0.00    +0.000 OA
ATOM     27  H16 UNL     1      -8.933  81.444  88.769  0.00  0.00    +0.000 HD
ENDBRANCH  23  26
BRANCH  22  28
ATOM     28  O5  UNL     1      -7.737  79.599  90.635  0.00  0.00    +0.000 OA
ATOM     29  C21 UNL     1      -8.011  78.333  91.225  0.00  0.00    +0.000 C 
ENDBRANCH  22  28
ENDBRANCH  19  20
ENDBRANCH  16  18
ENDBRANCH   1  16
TORSDOF 10
ENDMDL
