MODEL 1
REMARK VINA RESULT:      -8.2      0.000      0.000
REMARK  Name = .\curcumin.pdb
REMARK  12 active torsions:
REMARK  status: ('A' for Active; 'I' for Inactive)
REMARK    1  A    between atoms: C1_1  and  O1_2
REMARK    2  A    between atoms: O1_2  and  C2_3
REMARK    3  A    between atoms: C4_5  and  O6_27
REMARK    4  A    between atoms: C7_8  and  C8_9
REMARK    5  A    between atoms: C9_10  and  C10_11
REMARK    6  A    between atoms: C10_11  and  C11_13
REMARK    7  A    between atoms: C11_13  and  C12_14
REMARK    8  A    between atoms: C12_14  and  C13_16
REMARK    9  A    between atoms: C14_17  and  C15_18
REMARK   10  A    between atoms: C17_20  and  O5_25
REMARK   11  A    between atoms: C18_21  and  O4_24
REMARK   12  A    between atoms: O5_25  and  C21_26
REMARK                            x       y       z     vdW  Elec       q    Type
REMARK                         _______ _______ _______ _____ _____    ______ ____
ROOT
ATOM      1  C11 UNL     1       2.005  79.925 104.174  0.00  0.00    +0.000 C 
ENDROOT
BRANCH   1   2
ATOM      2  C10 UNL     1       1.491  78.524 103.996  0.00  0.00    +0.000 C 
ATOM      3  O2  UNL     1       0.489  78.145 104.661  0.00  0.00    +0.000 OA
BRANCH   2   5
ATOM      4  C8  UNL     1       3.067  78.046 102.160  0.00  0.00    +0.000 C 
ATOM      5  C9  UNL     1       2.134  77.621 103.021  0.00  0.00    +0.000 C 
BRANCH   4  11
ATOM      6  C2  UNL     1       4.763  76.243 101.597  0.00  0.00    +0.000 A 
ATOM      7  C3  UNL     1       5.371  75.421 100.626  0.00  0.00    +0.000 A 
ATOM      8  C4  UNL     1       4.954  75.470  99.290  0.00  0.00    +0.000 A 
ATOM      9  C5  UNL     1       3.923  76.334  98.915  0.00  0.00    +0.000 A 
ATOM     10  C6  UNL     1       3.319  77.159  99.864  0.00  0.00    +0.000 A 
ATOM     11  C7  UNL     1       3.745  77.143 101.202  0.00  0.00    +0.000 A 
BRANCH   6  13
ATOM     12  C1  UNL     1       4.898  75.036 103.791  0.00  0.00    +0.000 C 
ATOM     13  O1  UNL     1       5.126  76.164 102.953  0.00  0.00    +0.000 OA
ENDBRANCH   6  13
BRANCH   8  14
ATOM     14  O6  UNL     1       5.551  74.657  98.329  0.00  0.00    +0.000 OA
ATOM     15  H20 UNL     1       6.285  74.001  98.570  0.00  0.00    +0.000 HD
ENDBRANCH   8  14
ENDBRANCH   4  11
ENDBRANCH   2   5
ENDBRANCH   1   2
BRANCH   1  16
ATOM     16  C12 UNL     1       0.894  80.923 104.406  0.00  0.00    +0.000 C 
ATOM     17  O3  UNL     1       0.353  81.504 103.426  0.00  0.00    +0.000 OA
BRANCH  16  18
ATOM     18  C13 UNL     1       0.407  81.251 105.763  0.00  0.00    +0.000 C 
ATOM     19  C14 UNL     1       1.189  81.229 106.854  0.00  0.00    +0.000 C 
BRANCH  19  20
ATOM     20  C15 UNL     1       0.705  81.569 108.214  0.00  0.00    +0.000 A 
ATOM     21  C16 UNL     1       0.823  82.866 108.757  0.00  0.00    +0.000 A 
ATOM     22  C17 UNL     1       0.341  83.149 110.050  0.00  0.00    +0.000 A 
ATOM     23  C18 UNL     1      -0.271  82.131 110.795  0.00  0.00    +0.000 A 
ATOM     24  C19 UNL     1      -0.406  80.849 110.252  0.00  0.00    +0.000 A 
ATOM     25  C20 UNL     1       0.072  80.572 108.970  0.00  0.00    +0.000 A 
BRANCH  23  26
ATOM     26  O4  UNL     1      -0.748  82.406 112.075  0.00  0.00    +0.000 OA
ATOM     27  H16 UNL     1      -0.323  81.995 112.900  0.00  0.00    +0.000 HD
ENDBRANCH  23  26
BRANCH  22  28
ATOM     28  O5  UNL     1       0.447  84.425 110.627  0.00  0.00    +0.000 OA
ATOM     29  C21 UNL     1       1.440  85.386 110.283  0.00  0.00    +0.000 C 
ENDBRANCH  22  28
ENDBRANCH  19  20
ENDBRANCH  16  18
ENDBRANCH   1  16
TORSDOF 10
ENDMDL
MODEL 2
REMARK VINA RESULT:      -8.2      1.120      1.897
REMARK  Name = .\curcumin.pdb
REMARK  12 active torsions:
REMARK  status: ('A' for Active; 'I' for Inactive)
REMARK    1  A    between atoms: C1_1  and  O1_2
REMARK    2  A    between atoms: O1_2  and  C2_3
REMARK    3  A    between atoms: C4_5  and  O6_27
REMARK    4  A    between atoms: C7_8  and  C8_9
REMARK    5  A    between atoms: C9_10  and  C10_11
REMARK    6  A    between atoms: C10_11  and  C11_13
REMARK    7  A    between atoms: C11_13  and  C12_14
REMARK    8  A    between atoms: C12_14  and  C13_16
REMARK    9  A    between atoms: C14_17  and  C15_18
REMARK   10  A    between atoms: C17_20  and  O5_25
REMARK   11  A    between atoms: C18_21  and  O4_24
REMARK   12  A    between atoms: O5_25  and  C21_26
REMARK                            x       y       z     vdW  Elec       q    Type
REMARK                         _______ _______ _______ _____ _____    ______ ____
ROOT
ATOM      1  C11 UNL     1       2.216  79.479 103.946  0.00  0.00    +0.000 C 
ENDROOT
BRANCH   1   2
ATOM      2  C10 UNL     1       1.644  78.089 103.941  0.00  0.00    +0.000 C 
ATOM      3  O2  UNL     1       0.555  77.867 104.536  0.00  0.00    +0.000 OA
BRANCH   2   5
ATOM      4  C8  UNL     1       3.414  77.239 102.448  0.00  0.00    +0.000 C 
ATOM      5  C9  UNL     1       2.337  77.010 103.210  0.00  0.00    +0.000 C 
BRANCH   4  11
ATOM      6  C2  UNL     1       4.329  76.166 100.337  0.00  0.00    +0.000 A 
ATOM      7  C3  UNL     1       5.020  75.097  99.731  0.00  0.00    +0.000 A 
ATOM      8  C4  UNL     1       5.540  74.054 100.507  0.00  0.00    +0.000 A 
ATOM      9  C5  UNL     1       5.380  74.073 101.894  0.00  0.00    +0.000 A 
ATOM     10  C6  UNL     1       4.690  75.121 102.505  0.00  0.00    +0.000 A 
ATOM     11  C7  UNL     1       4.138  76.160 101.739  0.00  0.00    +0.000 A 
BRANCH   6  13
ATOM     12  C1  UNL     1       2.664  77.238  98.799  0.00  0.00    +0.000 C 
ATOM     13  O1  UNL     1       3.853  77.252  99.582  0.00  0.00    +0.000 OA
ENDBRANCH   6  13
BRANCH   8  14
ATOM     14  O6  UNL     1       6.225  72.998  99.911  0.00  0.00    +0.000 OA
ATOM     15  H20 UNL     1       5.736  72.218  99.487  0.00  0.00    +0.000 HD
ENDBRANCH   8  14
ENDBRANCH   4  11
ENDBRANCH   2   5
ENDBRANCH   1   2
BRANCH   1  16
ATOM     16  C12 UNL     1       1.150  80.541 104.097  0.00  0.00    +0.000 C 
ATOM     17  O3  UNL     1       0.715  81.145 103.080  0.00  0.00    +0.000 OA
BRANCH  16  18
ATOM     18  C13 UNL     1       0.589  80.905 105.415  0.00  0.00    +0.000 C 
ATOM     19  C14 UNL     1       1.293  80.858 106.557  0.00  0.00    +0.000 C 
BRANCH  19  20
ATOM     20  C15 UNL     1       0.736  81.235 107.879  0.00  0.00    +0.000 A 
ATOM     21  C16 UNL     1       0.908  82.519 108.435  0.00  0.00    +0.000 A 
ATOM     22  C17 UNL     1       0.353  82.839 109.690  0.00  0.00    +0.000 A 
ATOM     23  C18 UNL     1      -0.387  81.870 110.381  0.00  0.00    +0.000 A 
ATOM     24  C19 UNL     1      -0.577  80.601 109.824  0.00  0.00    +0.000 A 
ATOM     25  C20 UNL     1      -0.025  80.288 108.580  0.00  0.00    +0.000 A 
BRANCH  23  26
ATOM     26  O4  UNL     1      -0.937  82.181 111.624  0.00  0.00    +0.000 OA
ATOM     27  H16 UNL     1      -1.697  81.638 112.019  0.00  0.00    +0.000 HD
ENDBRANCH  23  26
BRANCH  22  28
ATOM     28  O5  UNL     1       0.510  84.104 110.278  0.00  0.00    +0.000 OA
ATOM     29  C21 UNL     1       1.599  84.984 110.022  0.00  0.00    +0.000 C 
ENDBRANCH  22  28
ENDBRANCH  19  20
ENDBRANCH  16  18
ENDBRANCH   1  16
TORSDOF 10
ENDMDL
MODEL 3
REMARK VINA RESULT:      -7.9      1.468     10.502
REMARK  Name = .\curcumin.pdb
REMARK  12 active torsions:
REMARK  status: ('A' for Active; 'I' for Inactive)
REMARK    1  A    between atoms: C1_1  and  O1_2
REMARK    2  A    between atoms: O1_2  and  C2_3
REMARK    3  A    between atoms: C4_5  and  O6_27
REMARK    4  A    between atoms: C7_8  and  C8_9
REMARK    5  A    between atoms: C9_10  and  C10_11
REMARK    6  A    between atoms: C10_11  and  C11_13
REMARK    7  A    between atoms: C11_13  and  C12_14
REMARK    8  A    between atoms: C12_14  and  C13_16
REMARK    9  A    between atoms: C14_17  and  C15_18
REMARK   10  A    between atoms: C17_20  and  O5_25
REMARK   11  A    between atoms: C18_21  and  O4_24
REMARK   12  A    between atoms: O5_25  and  C21_26
REMARK                            x       y       z     vdW  Elec       q    Type
REMARK                         _______ _______ _______ _____ _____    ______ ____
ROOT
ATOM      1  C11 UNL     1       1.507  80.994 105.190  0.00  0.00    +0.000 C 
ENDROOT
BRANCH   1   2
ATOM      2  C10 UNL     1       0.276  81.785 105.531  0.00  0.00    +0.000 C 
ATOM      3  O2  UNL     1      -0.500  82.147 104.606  0.00  0.00    +0.000 OA
BRANCH   2   5
ATOM      4  C8  UNL     1       0.888  82.030 107.907  0.00  0.00    +0.000 C 
ATOM      5  C9  UNL     1      -0.035  82.095 106.940  0.00  0.00    +0.000 C 
BRANCH   4  11
ATOM      6  C2  UNL     1       0.020  81.450 110.221  0.00  0.00    +0.000 A 
ATOM      7  C3  UNL     1      -0.239  81.853 111.547  0.00  0.00    +0.000 A 
ATOM      8  C4  UNL     1       0.097  83.143 111.978  0.00  0.00    +0.000 A 
ATOM      9  C5  UNL     1       0.699  84.036 111.090  0.00  0.00    +0.000 A 
ATOM     10  C6  UNL     1       0.953  83.653 109.774  0.00  0.00    +0.000 A 
ATOM     11  C7  UNL     1       0.597  82.374 109.318  0.00  0.00    +0.000 A 
BRANCH   6  13
ATOM     12  C1  UNL     1      -1.507  79.701 109.275  0.00  0.00    +0.000 C 
ATOM     13  O1  UNL     1      -0.254  80.141 109.788  0.00  0.00    +0.000 OA
ENDBRANCH   6  13
BRANCH   8  14
ATOM     14  O6  UNL     1      -0.156  83.543 113.288  0.00  0.00    +0.000 OA
ATOM     15  H20 UNL     1       0.583  83.592 113.980  0.00  0.00    +0.000 HD
ENDBRANCH   8  14
ENDBRANCH   4  11
ENDBRANCH   2   5
ENDBRANCH   1   2
BRANCH   1  16
ATOM     16  C12 UNL     1       1.250  79.505 105.171  0.00  0.00    +0.000 C 
ATOM     17  O3  UNL     1       0.492  78.985 106.033  0.00  0.00    +0.000 OA
BRANCH  16  18
ATOM     18  C13 UNL     1       1.865  78.617 104.160  0.00  0.00    +0.000 C 
ATOM     19  C14 UNL     1       3.071  78.048 104.313  0.00  0.00    +0.000 C 
BRANCH  19  20
ATOM     20  C15 UNL     1       3.685  77.148 103.306  0.00  0.00    +0.000 A 
ATOM     21  C16 UNL     1       3.733  77.469 101.934  0.00  0.00    +0.000 A 
ATOM     22  C17 UNL     1       4.336  76.590 101.012  0.00  0.00    +0.000 A 
ATOM     23  C18 UNL     1       4.900  75.392 101.471  0.00  0.00    +0.000 A 
ATOM     24  C19 UNL     1       4.870  75.079 102.835  0.00  0.00    +0.000 A 
ATOM     25  C20 UNL     1       4.273  75.953 103.746  0.00  0.00    +0.000 A 
BRANCH  23  26
ATOM     26  O4  UNL     1       5.495  74.518 100.563  0.00  0.00    +0.000 OA
ATOM     27  H16 UNL     1       5.266  73.530 100.548  0.00  0.00    +0.000 HD
ENDBRANCH  23  26
BRANCH  22  28
ATOM     28  O5  UNL     1       4.396  76.871  99.638  0.00  0.00    +0.000 OA
ATOM     29  C21 UNL     1       3.286  76.800  98.749  0.00  0.00    +0.000 C 
ENDBRANCH  22  28
ENDBRANCH  19  20
ENDBRANCH  16  18
ENDBRANCH   1  16
TORSDOF 10
ENDMDL
MODEL 4
REMARK VINA RESULT:      -7.9      1.263     10.768
REMARK  Name = .\curcumin.pdb
REMARK  12 active torsions:
REMARK  status: ('A' for Active; 'I' for Inactive)
REMARK    1  A    between atoms: C1_1  and  O1_2
REMARK    2  A    between atoms: O1_2  and  C2_3
REMARK    3  A    between atoms: C4_5  and  O6_27
REMARK    4  A    between atoms: C7_8  and  C8_9
REMARK    5  A    between atoms: C9_10  and  C10_11
REMARK    6  A    between atoms: C10_11  and  C11_13
REMARK    7  A    between atoms: C11_13  and  C12_14
REMARK    8  A    between atoms: C12_14  and  C13_16
REMARK    9  A    between atoms: C14_17  and  C15_18
REMARK   10  A    between atoms: C17_20  and  O5_25
REMARK   11  A    between atoms: C18_21  and  O4_24
REMARK   12  A    between atoms: O5_25  and  C21_26
REMARK                            x       y       z     vdW  Elec       q    Type
REMARK                         _______ _______ _______ _____ _____    ______ ____
ROOT
ATOM      1  C11 UNL     1       2.100  80.525 104.488  0.00  0.00    +0.000 C 
ENDROOT
BRANCH   1   2
ATOM      2  C10 UNL     1       0.818  81.288 104.668  0.00  0.00    +0.000 C 
ATOM      3  O2  UNL     1       0.133  81.592 103.655  0.00  0.00    +0.000 OA
BRANCH   2   5
ATOM      4  C8  UNL     1       1.092  81.404 107.117  0.00  0.00    +0.000 C 
ATOM      5  C9  UNL     1       0.353  81.639 106.025  0.00  0.00    +0.000 C 
BRANCH   4  11
ATOM      6  C2  UNL     1      -0.265  81.008 109.225  0.00  0.00    +0.000 A 
ATOM      7  C3  UNL     1      -0.646  81.440 110.512  0.00  0.00    +0.000 A 
ATOM      8  C4  UNL     1      -0.102  82.608 111.061  0.00  0.00    +0.000 A 
ATOM      9  C5  UNL     1       0.831  83.348 110.333  0.00  0.00    +0.000 A 
ATOM     10  C6  UNL     1       1.209  82.937 109.055  0.00  0.00    +0.000 A 
ATOM     11  C7  UNL     1       0.652  81.784 108.478  0.00  0.00    +0.000 A 
BRANCH   6  13
ATOM     12  C1  UNL     1      -1.988  79.195 109.043  0.00  0.00    +0.000 C 
ATOM     13  O1  UNL     1      -0.754  79.807 108.682  0.00  0.00    +0.000 OA
ENDBRANCH   6  13
BRANCH   8  14
ATOM     14  O6  UNL     1      -0.475  83.035 112.334  0.00  0.00    +0.000 OA
ATOM     15  H20 UNL     1       0.178  83.510 112.947  0.00  0.00    +0.000 HD
ENDBRANCH   8  14
ENDBRANCH   4  11
ENDBRANCH   2   5
ENDBRANCH   1   2
BRANCH   1  16
ATOM     16  C12 UNL     1       1.871  79.128 103.959  0.00  0.00    +0.000 C 
ATOM     17  O3  UNL     1       0.889  78.451 104.369  0.00  0.00    +0.000 OA
BRANCH  16  18
ATOM     18  C13 UNL     1       2.770  78.512 102.959  0.00  0.00    +0.000 C 
ATOM     19  C14 UNL     1       2.352  77.645 102.024  0.00  0.00    +0.000 C 
BRANCH  19  20
ATOM     20  C15 UNL     1       3.250  77.035 101.013  0.00  0.00    +0.000 A 
ATOM     21  C16 UNL     1       4.376  76.265 101.368  0.00  0.00    +0.000 A 
ATOM     22  C17 UNL     1       5.198  75.694 100.376  0.00  0.00    +0.000 A 
ATOM     23  C18 UNL     1       4.880  75.888  99.025  0.00  0.00    +0.000 A 
ATOM     24  C19 UNL     1       3.752  76.636  98.669  0.00  0.00    +0.000 A 
ATOM     25  C20 UNL     1       2.940  77.200  99.655  0.00  0.00    +0.000 A 
BRANCH  23  26
ATOM     26  O4  UNL     1       5.691  75.327  98.039  0.00  0.00    +0.000 OA
ATOM     27  H16 UNL     1       6.701  75.410  98.071  0.00  0.00    +0.000 HD
ENDBRANCH  23  26
BRANCH  22  28
ATOM     28  O5  UNL     1       6.332  74.927 100.691  0.00  0.00    +0.000 OA
ATOM     29  C21 UNL     1       6.308  73.534 100.985  0.00  0.00    +0.000 C 
ENDBRANCH  22  28
ENDBRANCH  19  20
ENDBRANCH  16  18
ENDBRANCH   1  16
TORSDOF 10
ENDMDL
MODEL 5
REMARK VINA RESULT:      -7.8      1.207     10.801
REMARK  Name = .\curcumin.pdb
REMARK  12 active torsions:
REMARK  status: ('A' for Active; 'I' for Inactive)
REMARK    1  A    between atoms: C1_1  and  O1_2
REMARK    2  A    between atoms: O1_2  and  C2_3
REMARK    3  A    between atoms: C4_5  and  O6_27
REMARK    4  A    between atoms: C7_8  and  C8_9
REMARK    5  A    between atoms: C9_10  and  C10_11
REMARK    6  A    between atoms: C10_11  and  C11_13
REMARK    7  A    between atoms: C11_13  and  C12_14
REMARK    8  A    between atoms: C12_14  and  C13_16
REMARK    9  A    between atoms: C14_17  and  C15_18
REMARK   10  A    between atoms: C17_20  and  O5_25
REMARK   11  A    between atoms: C18_21  and  O4_24
REMARK   12  A    between atoms: O5_25  and  C21_26
REMARK                            x       y       z     vdW  Elec       q    Type
REMARK                         _______ _______ _______ _____ _____    ______ ____
ROOT
ATOM      1  C11 UNL     1       1.505  80.973 105.073  0.00  0.00    +0.000 C 
ENDROOT
BRANCH   1   2
ATOM      2  C10 UNL     1       0.272  81.736 105.468  0.00  0.00    +0.000 C 
ATOM      3  O2  UNL     1      -0.504  82.163 104.571  0.00  0.00    +0.000 OA
BRANCH   2   5
ATOM      4  C8  UNL     1       0.913  82.038 107.830  0.00  0.00    +0.000 C 
ATOM      5  C9  UNL     1      -0.041  81.943 106.895  0.00  0.00    +0.000 C 
BRANCH   4  11
ATOM      6  C2  UNL     1       0.998  83.470 109.924  0.00  0.00    +0.000 A 
ATOM      7  C3  UNL     1       0.687  83.626 111.291  0.00  0.00    +0.000 A 
ATOM      8  C4  UNL     1      -0.021  82.632 111.978  0.00  0.00    +0.000 A 
ATOM      9  C5  UNL     1      -0.429  81.479 111.306  0.00  0.00    +0.000 A 
ATOM     10  C6  UNL     1      -0.121  81.308 109.957  0.00  0.00    +0.000 A 
ATOM     11  C7  UNL     1       0.613  82.281 109.260  0.00  0.00    +0.000 A 
BRANCH   6  13
ATOM     12  C1  UNL     1       2.298  85.609 109.787  0.00  0.00    +0.000 C 
ATOM     13  O1  UNL     1       1.654  84.482 109.203  0.00  0.00    +0.000 OA
ENDBRANCH   6  13
BRANCH   8  14
ATOM     14  O6  UNL     1      -0.331  82.786 113.328  0.00  0.00    +0.000 OA
ATOM     15  H20 UNL     1      -0.918  83.545 113.655  0.00  0.00    +0.000 HD
ENDBRANCH   8  14
ENDBRANCH   4  11
ENDBRANCH   2   5
ENDBRANCH   1   2
BRANCH   1  16
ATOM     16  C12 UNL     1       1.243  79.493 104.915  0.00  0.00    +0.000 C 
ATOM     17  O3  UNL     1       0.621  78.864 105.813  0.00  0.00    +0.000 OA
BRANCH  16  18
ATOM     18  C13 UNL     1       1.696  78.740 103.725  0.00  0.00    +0.000 C 
ATOM     19  C14 UNL     1       2.962  78.330 103.549  0.00  0.00    +0.000 C 
BRANCH  19  20
ATOM     20  C15 UNL     1       3.417  77.564 102.362  0.00  0.00    +0.000 A 
ATOM     21  C16 UNL     1       4.363  76.522 102.452  0.00  0.00    +0.000 A 
ATOM     22  C17 UNL     1       4.760  75.813 101.301  0.00  0.00    +0.000 A 
ATOM     23  C18 UNL     1       4.196  76.142 100.061  0.00  0.00    +0.000 A 
ATOM     24  C19 UNL     1       3.242  77.162  99.972  0.00  0.00    +0.000 A 
ATOM     25  C20 UNL     1       2.851  77.863 101.114  0.00  0.00    +0.000 A 
BRANCH  23  26
ATOM     26  O4  UNL     1       4.586  75.444  98.919  0.00  0.00    +0.000 OA
ATOM     27  H16 UNL     1       4.302  74.483  98.761  0.00  0.00    +0.000 HD
ENDBRANCH  23  26
BRANCH  22  28
ATOM     28  O5  UNL     1       5.705  74.775 101.349  0.00  0.00    +0.000 OA
ATOM     29  C21 UNL     1       5.421  73.444 101.768  0.00  0.00    +0.000 C 
ENDBRANCH  22  28
ENDBRANCH  19  20
ENDBRANCH  16  18
ENDBRANCH   1  16
TORSDOF 10
ENDMDL
MODEL 6
REMARK VINA RESULT:      -7.8      1.997      3.558
REMARK  Name = .\curcumin.pdb
REMARK  12 active torsions:
REMARK  status: ('A' for Active; 'I' for Inactive)
REMARK    1  A    between atoms: C1_1  and  O1_2
REMARK    2  A    between atoms: O1_2  and  C2_3
REMARK    3  A    between atoms: C4_5  and  O6_27
REMARK    4  A    between atoms: C7_8  and  C8_9
REMARK    5  A    between atoms: C9_10  and  C10_11
REMARK    6  A    between atoms: C10_11  and  C11_13
REMARK    7  A    between atoms: C11_13  and  C12_14
REMARK    8  A    between atoms: C12_14  and  C13_16
REMARK    9  A    between atoms: C14_17  and  C15_18
REMARK   10  A    between atoms: C17_20  and  O5_25
REMARK   11  A    between atoms: C18_21  and  O4_24
REMARK   12  A    between atoms: O5_25  and  C21_26
REMARK                            x       y       z     vdW  Elec       q    Type
REMARK                         _______ _______ _______ _____ _____    ______ ____
ROOT
ATOM      1  C11 UNL     1       2.340  76.186 104.040  0.00  0.00    +0.000 C 
ENDROOT
BRANCH   1   2
ATOM      2  C10 UNL     1       3.834  76.199 104.209  0.00  0.00    +0.000 C 
ATOM      3  O2  UNL     1       4.337  76.788 105.203  0.00  0.00    +0.000 OA
BRANCH   2   5
ATOM      4  C8  UNL     1       4.255  75.137 102.023  0.00  0.00    +0.000 C 
ATOM      5  C9  UNL     1       4.692  75.492 103.238  0.00  0.00    +0.000 C 
BRANCH   4  11
ATOM      6  C2  UNL     1       5.362  75.001  99.743  0.00  0.00    +0.000 A 
ATOM      7  C3  UNL     1       6.185  74.292  98.843  0.00  0.00    +0.000 A 
ATOM      8  C4  UNL     1       6.781  73.083  99.224  0.00  0.00    +0.000 A 
ATOM      9  C5  UNL     1       6.564  72.576 100.506  0.00  0.00    +0.000 A 
ATOM     10  C6  UNL     1       5.744  73.261 101.402  0.00  0.00    +0.000 A 
ATOM     11  C7  UNL     1       5.117  74.460 101.027  0.00  0.00    +0.000 A 
BRANCH   6  13
ATOM     12  C1  UNL     1       3.526  76.426  98.803  0.00  0.00    +0.000 C 
ATOM     13  O1  UNL     1       4.806  76.245  99.401  0.00  0.00    +0.000 OA
ENDBRANCH   6  13
BRANCH   8  14
ATOM     14  O6  UNL     1       7.597  72.384  98.337  0.00  0.00    +0.000 OA
ATOM     15  H20 UNL     1       7.209  71.836  97.578  0.00  0.00    +0.000 HD
ENDBRANCH   8  14
ENDBRANCH   4  11
ENDBRANCH   2   5
ENDBRANCH   1   2
BRANCH   1  16
ATOM     16  C12 UNL     1       1.782  77.555 103.728  0.00  0.00    +0.000 C 
ATOM     17  O3  UNL     1       1.964  78.066 102.590  0.00  0.00    +0.000 OA
BRANCH  16  18
ATOM     18  C13 UNL     1       1.018  78.335 104.725  0.00  0.00    +0.000 C 
ATOM     19  C14 UNL     1       1.407  79.537 105.179  0.00  0.00    +0.000 C 
BRANCH  19  20
ATOM     20  C15 UNL     1       0.635  80.326 106.171  0.00  0.00    +0.000 A 
ATOM     21  C16 UNL     1       0.500  79.926 107.516  0.00  0.00    +0.000 A 
ATOM     22  C17 UNL     1      -0.233  80.711 108.428  0.00  0.00    +0.000 A 
ATOM     23  C18 UNL     1      -0.820  81.906 107.991  0.00  0.00    +0.000 A 
ATOM     24  C19 UNL     1      -0.672  82.315 106.661  0.00  0.00    +0.000 A 
ATOM     25  C20 UNL     1       0.055  81.535 105.760  0.00  0.00    +0.000 A 
BRANCH  23  26
ATOM     26  O4  UNL     1      -1.548  82.685 108.888  0.00  0.00    +0.000 OA
ATOM     27  H16 UNL     1      -1.890  82.306 109.765  0.00  0.00    +0.000 HD
ENDBRANCH  23  26
BRANCH  22  28
ATOM     28  O5  UNL     1      -0.395  80.341 109.773  0.00  0.00    +0.000 OA
ATOM     29  C21 UNL     1       0.062  81.109 110.882  0.00  0.00    +0.000 C 
ENDBRANCH  22  28
ENDBRANCH  19  20
ENDBRANCH  16  18
ENDBRANCH   1  16
TORSDOF 10
ENDMDL
MODEL 7
REMARK VINA RESULT:      -7.5      2.408      3.814
REMARK  Name = .\curcumin.pdb
REMARK  12 active torsions:
REMARK  status: ('A' for Active; 'I' for Inactive)
REMARK    1  A    between atoms: C1_1  and  O1_2
REMARK    2  A    between atoms: O1_2  and  C2_3
REMARK    3  A    between atoms: C4_5  and  O6_27
REMARK    4  A    between atoms: C7_8  and  C8_9
REMARK    5  A    between atoms: C9_10  and  C10_11
REMARK    6  A    between atoms: C10_11  and  C11_13
REMARK    7  A    between atoms: C11_13  and  C12_14
REMARK    8  A    between atoms: C12_14  and  C13_16
REMARK    9  A    between atoms: C14_17  and  C15_18
REMARK   10  A    between atoms: C17_20  and  O5_25
REMARK   11  A    between atoms: C18_21  and  O4_24
REMARK   12  A    between atoms: O5_25  and  C21_26
REMARK                            x       y       z     vdW  Elec       q    Type
REMARK                         _______ _______ _______ _____ _____    ______ ____
ROOT
ATOM      1  C11 UNL     1       2.411  75.991 103.654  0.00  0.00    +0.000 C 
ENDROOT
BRANCH   1   2
ATOM      2  C10 UNL     1       3.897  76.183 103.783  0.00  0.00    +0.000 C 
ATOM      3  O2  UNL     1       4.348  76.905 104.712  0.00  0.00    +0.000 OA
BRANCH   2   5
ATOM      4  C8  UNL     1       4.414  74.479 102.076  0.00  0.00    +0.000 C 
ATOM      5  C9  UNL     1       4.812  75.496 102.851  0.00  0.00    +0.000 C 
BRANCH   4  11
ATOM      6  C2  UNL     1       5.897  72.543 101.371  0.00  0.00    +0.000 A 
ATOM      7  C3  UNL     1       6.754  71.970 100.408  0.00  0.00    +0.000 A 
ATOM      8  C4  UNL     1       7.001  72.625  99.195  0.00  0.00    +0.000 A 
ATOM      9  C5  UNL     1       6.392  73.852  98.932  0.00  0.00    +0.000 A 
ATOM     10  C6  UNL     1       5.550  74.435  99.879  0.00  0.00    +0.000 A 
ATOM     11  C7  UNL     1       5.313  73.806 101.111  0.00  0.00    +0.000 A 
BRANCH   6  13
ATOM     12  C1  UNL     1       6.447  71.797 103.700  0.00  0.00    +0.000 C 
ATOM     13  O1  UNL     1       5.588  71.874 102.567  0.00  0.00    +0.000 OA
ENDBRANCH   6  13
BRANCH   8  14
ATOM     14  O6  UNL     1       7.844  72.058  98.242  0.00  0.00    +0.000 OA
ATOM     15  H20 UNL     1       8.838  71.953  98.408  0.00  0.00    +0.000 HD
ENDBRANCH   8  14
ENDBRANCH   4  11
ENDBRANCH   2   5
ENDBRANCH   1   2
BRANCH   1  16
ATOM     16  C12 UNL     1       1.716  77.218 103.109  0.00  0.00    +0.000 C 
ATOM     17  O3  UNL     1       1.739  77.458 101.872  0.00  0.00    +0.000 OA
BRANCH  16  18
ATOM     18  C13 UNL     1       0.997  78.165 103.988  0.00  0.00    +0.000 C 
ATOM     19  C14 UNL     1       1.613  79.107 104.719  0.00  0.00    +0.000 C 
BRANCH  19  20
ATOM     20  C15 UNL     1       0.892  80.067 105.592  0.00  0.00    +0.000 A 
ATOM     21  C16 UNL     1       1.032  80.065 106.996  0.00  0.00    +0.000 A 
ATOM     22  C17 UNL     1       0.337  81.001 107.787  0.00  0.00    +0.000 A 
ATOM     23  C18 UNL     1      -0.489  81.947 107.167  0.00  0.00    +0.000 A 
ATOM     24  C19 UNL     1      -0.615  81.964 105.774  0.00  0.00    +0.000 A 
ATOM     25  C20 UNL     1       0.075  81.036 104.992  0.00  0.00    +0.000 A 
BRANCH  23  26
ATOM     26  O4  UNL     1      -1.180  82.874 107.946  0.00  0.00    +0.000 OA
ATOM     27  H16 UNL     1      -1.093  83.872 107.787  0.00  0.00    +0.000 HD
ENDBRANCH  23  26
BRANCH  22  28
ATOM     28  O5  UNL     1       0.446  81.025 109.187  0.00  0.00    +0.000 OA
ATOM     29  C21 UNL     1      -0.426  80.333 110.076  0.00  0.00    +0.000 C 
ENDBRANCH  22  28
ENDBRANCH  19  20
ENDBRANCH  16  18
ENDBRANCH   1  16
TORSDOF 10
ENDMDL
MODEL 8
REMARK VINA RESULT:      -7.3      3.528      6.277
REMARK  Name = .\curcumin.pdb
REMARK  12 active torsions:
REMARK  status: ('A' for Active; 'I' for Inactive)
REMARK    1  A    between atoms: C1_1  and  O1_2
REMARK    2  A    between atoms: O1_2  and  C2_3
REMARK    3  A    between atoms: C4_5  and  O6_27
REMARK    4  A    between atoms: C7_8  and  C8_9
REMARK    5  A    between atoms: C9_10  and  C10_11
REMARK    6  A    between atoms: C10_11  and  C11_13
REMARK    7  A    between atoms: C11_13  and  C12_14
REMARK    8  A    between atoms: C12_14  and  C13_16
REMARK    9  A    between atoms: C14_17  and  C15_18
REMARK   10  A    between atoms: C17_20  and  O5_25
REMARK   11  A    between atoms: C18_21  and  O4_24
REMARK   12  A    between atoms: O5_25  and  C21_26
REMARK                            x       y       z     vdW  Elec       q    Type
REMARK                         _______ _______ _______ _____ _____    ______ ____
ROOT
ATOM      1  C11 UNL     1       5.406  73.819 106.019  0.00  0.00    +0.000 C 
ENDROOT
BRANCH   1   2
ATOM      2  C10 UNL     1       6.255  73.233 104.927  0.00  0.00    +0.000 C 
ATOM      3  O2  UNL     1       6.925  72.191 105.158  0.00  0.00    +0.000 OA
BRANCH   2   5
ATOM      4  C8  UNL     1       5.387  73.524 102.637  0.00  0.00    +0.000 C 
ATOM      5  C9  UNL     1       6.268  73.856 103.589  0.00  0.00    +0.000 C 
BRANCH   4  11
ATOM      6  C2  UNL     1       6.186  73.729 100.236  0.00  0.00    +0.000 A 
ATOM      7  C3  UNL     1       6.121  74.400  98.998  0.00  0.00    +0.000 A 
ATOM      8  C4  UNL     1       5.233  75.467  98.812  0.00  0.00    +0.000 A 
ATOM      9  C5  UNL     1       4.401  75.869  99.858  0.00  0.00    +0.000 A 
ATOM     10  C6  UNL     1       4.462  75.220 101.091  0.00  0.00    +0.000 A 
ATOM     11  C7  UNL     1       5.366  74.167 101.303  0.00  0.00    +0.000 A 
BRANCH   6  13
ATOM     12  C1  UNL     1       7.967  72.141  99.467  0.00  0.00    +0.000 C 
ATOM     13  O1  UNL     1       7.026  72.618 100.423  0.00  0.00    +0.000 OA
ENDBRANCH   6  13
BRANCH   8  14
ATOM     14  O6  UNL     1       5.164  76.128  97.587  0.00  0.00    +0.000 OA
ATOM     15  H20 UNL     1       5.919  76.076  96.913  0.00  0.00    +0.000 HD
ENDBRANCH   8  14
ENDBRANCH   4  11
ENDBRANCH   2   5
ENDBRANCH   1   2
BRANCH   1  16
ATOM     16  C12 UNL     1       5.488  75.328 106.069  0.00  0.00    +0.000 C 
ATOM     17  O3  UNL     1       6.524  75.888 106.519  0.00  0.00    +0.000 OA
BRANCH  16  18
ATOM     18  C13 UNL     1       4.380  76.188 105.601  0.00  0.00    +0.000 C 
ATOM     19  C14 UNL     1       4.397  76.842 104.429  0.00  0.00    +0.000 C 
BRANCH  19  20
ATOM     20  C15 UNL     1       3.282  77.696 103.952  0.00  0.00    +0.000 A 
ATOM     21  C16 UNL     1       3.090  79.016 104.411  0.00  0.00    +0.000 A 
ATOM     22  C17 UNL     1       2.023  79.797 103.924  0.00  0.00    +0.000 A 
ATOM     23  C18 UNL     1       1.156  79.256 102.965  0.00  0.00    +0.000 A 
ATOM     24  C19 UNL     1       1.354  77.953 102.494  0.00  0.00    +0.000 A 
ATOM     25  C20 UNL     1       2.412  77.182 102.979  0.00  0.00    +0.000 A 
BRANCH  23  26
ATOM     26  O4  UNL     1       0.098  80.024 102.482  0.00  0.00    +0.000 OA
ATOM     27  H16 UNL     1      -0.544  79.664 101.784  0.00  0.00    +0.000 HD
ENDBRANCH  23  26
BRANCH  22  28
ATOM     28  O5  UNL     1       1.796  81.112 104.362  0.00  0.00    +0.000 OA
ATOM     29  C21 UNL     1       0.741  81.500 105.235  0.00  0.00    +0.000 C 
ENDBRANCH  22  28
ENDBRANCH  19  20
ENDBRANCH  16  18
ENDBRANCH   1  16
TORSDOF 10
ENDMDL
MODEL 9
REMARK VINA RESULT:      -7.2      2.608      5.235
REMARK  Name = .\curcumin.pdb
REMARK  12 active torsions:
REMARK  status: ('A' for Active; 'I' for Inactive)
REMARK    1  A    between atoms: C1_1  and  O1_2
REMARK    2  A    between atoms: O1_2  and  C2_3
REMARK    3  A    between atoms: C4_5  and  O6_27
REMARK    4  A    between atoms: C7_8  and  C8_9
REMARK    5  A    between atoms: C9_10  and  C10_11
REMARK    6  A    between atoms: C10_11  and  C11_13
REMARK    7  A    between atoms: C11_13  and  C12_14
REMARK    8  A    between atoms: C12_14  and  C13_16
REMARK    9  A    between atoms: C14_17  and  C15_18
REMARK   10  A    between atoms: C17_20  and  O5_25
REMARK   11  A    between atoms: C18_21  and  O4_24
REMARK   12  A    between atoms: O5_25  and  C21_26
REMARK                            x       y       z     vdW  Elec       q    Type
REMARK                         _______ _______ _______ _____ _____    ______ ____
ROOT
ATOM      1  C11 UNL     1       3.763  77.455 101.720  0.00  0.00    +0.000 C 
ENDROOT
BRANCH   1   2
ATOM      2  C10 UNL     1       3.912  75.969 101.555  0.00  0.00    +0.000 C 
ATOM      3  O2  UNL     1       3.780  75.459 100.410  0.00  0.00    +0.000 OA
BRANCH   2   5
ATOM      4  C8  UNL     1       5.069  75.548 103.692  0.00  0.00    +0.000 C 
ATOM      5  C9  UNL     1       4.250  75.128 102.720  0.00  0.00    +0.000 C 
BRANCH   4  11
ATOM      6  C2  UNL     1       6.408  73.749 104.880  0.00  0.00    +0.000 A 
ATOM      7  C3  UNL     1       6.645  72.998 106.050  0.00  0.00    +0.000 A 
ATOM      8  C4  UNL     1       5.901  73.237 107.213  0.00  0.00    +0.000 A 
ATOM      9  C5  UNL     1       4.921  74.230 107.218  0.00  0.00    +0.000 A 
ATOM     10  C6  UNL     1       4.670  74.974 106.065  0.00  0.00    +0.000 A 
ATOM     11  C7  UNL     1       5.387  74.728 104.883  0.00  0.00    +0.000 A 
BRANCH   6  13
ATOM     12  C1  UNL     1       7.030  72.490 102.803  0.00  0.00    +0.000 C 
ATOM     13  O1  UNL     1       7.185  73.566 103.724  0.00  0.00    +0.000 OA
ENDBRANCH   6  13
BRANCH   8  14
ATOM     14  O6  UNL     1       6.136  72.498 108.370  0.00  0.00    +0.000 OA
ATOM     15  H20 UNL     1       6.838  71.767 108.401  0.00  0.00    +0.000 HD
ENDBRANCH   8  14
ENDBRANCH   4  11
ENDBRANCH   2   5
ENDBRANCH   1   2
BRANCH   1  16
ATOM     16  C12 UNL     1       2.342  77.861 102.038  0.00  0.00    +0.000 C 
ATOM     17  O3  UNL     1       1.380  77.303 101.447  0.00  0.00    +0.000 OA
BRANCH  16  18
ATOM     18  C13 UNL     1       2.032  78.909 103.035  0.00  0.00    +0.000 C 
ATOM     19  C14 UNL     1       0.961  78.865 103.844  0.00  0.00    +0.000 C 
BRANCH  19  20
ATOM     20  C15 UNL     1       0.655  79.908 104.853  0.00  0.00    +0.000 A 
ATOM     21  C16 UNL     1       0.789  79.682 106.239  0.00  0.00    +0.000 A 
ATOM     22  C17 UNL     1       0.497  80.704 107.164  0.00  0.00    +0.000 A 
ATOM     23  C18 UNL     1       0.081  81.958 106.695  0.00  0.00    +0.000 A 
ATOM     24  C19 UNL     1      -0.035  82.191 105.320  0.00  0.00    +0.000 A 
ATOM     25  C20 UNL     1       0.256  81.176 104.406  0.00  0.00    +0.000 A 
BRANCH  23  26
ATOM     26  O4  UNL     1      -0.211  82.972 107.606  0.00  0.00    +0.000 OA
ATOM     27  H16 UNL     1       0.140  82.948 108.558  0.00  0.00    +0.000 HD
ENDBRANCH  23  26
BRANCH  22  28
ATOM     28  O5  UNL     1       0.612  80.515 108.550  0.00  0.00    +0.000 OA
ATOM     29  C21 UNL     1      -0.479  80.221 109.418  0.00  0.00    +0.000 C 
ENDBRANCH  22  28
ENDBRANCH  19  20
ENDBRANCH  16  18
ENDBRANCH   1  16
TORSDOF 10
ENDMDL
