MODEL 1
REMARK VINA RESULT:      -4.3      0.000      0.000
REMARK  Name = .\curcumin.pdb
REMARK  12 active torsions:
REMARK  status: ('A' for Active; 'I' for Inactive)
REMARK    1  A    between atoms: C1_1  and  O1_2
REMARK    2  A    between atoms: O1_2  and  C2_3
REMARK    3  A    between atoms: C4_5  and  O6_27
REMARK    4  A    between atoms: C7_8  and  C8_9
REMARK    5  A    between atoms: C9_10  and  C10_11
REMARK    6  A    between atoms: C10_11  and  C11_13
REMARK    7  A    between atoms: C11_13  and  C12_14
REMARK    8  A    between atoms: C12_14  and  C13_16
REMARK    9  A    between atoms: C14_17  and  C15_18
REMARK   10  A    between atoms: C17_20  and  O5_25
REMARK   11  A    between atoms: C18_21  and  O4_24
REMARK   12  A    between atoms: O5_25  and  C21_26
REMARK                            x       y       z     vdW  Elec       q    Type
REMARK                         _______ _______ _______ _____ _____    ______ ____
ROOT
ATOM      1  C11 UNL     1      -9.647  73.293 -47.433  0.00  0.00    +0.000 C 
ENDROOT
BRANCH   1   2
ATOM      2  C10 UNL     1      -9.130  74.645 -47.025  0.00  0.00    +0.000 C 
ATOM      3  O2  UNL     1      -9.854  75.394 -46.317  0.00  0.00    +0.000 OA
BRANCH   2   5
ATOM      4  C8  UNL     1      -6.884  74.211 -47.948  0.00  0.00    +0.000 C 
ATOM      5  C9  UNL     1      -7.771  75.064 -47.420  0.00  0.00    +0.000 C 
BRANCH   4  11
ATOM      6  C2  UNL     1      -4.538  75.052 -47.466  0.00  0.00    +0.000 A 
ATOM      7  C3  UNL     1      -3.275  75.446 -47.955  0.00  0.00    +0.000 A 
ATOM      8  C4  UNL     1      -2.992  75.388 -49.326  0.00  0.00    +0.000 A 
ATOM      9  C5  UNL     1      -3.965  74.933 -50.217  0.00  0.00    +0.000 A 
ATOM     10  C6  UNL     1      -5.221  74.549 -49.748  0.00  0.00    +0.000 A 
ATOM     11  C7  UNL     1      -5.531  74.627 -48.381  0.00  0.00    +0.000 A 
BRANCH   6  13
ATOM     12  C1  UNL     1      -3.919  74.605 -45.078  0.00  0.00    +0.000 C 
ATOM     13  O1  UNL     1      -4.820  75.045 -46.090  0.00  0.00    +0.000 OA
ENDBRANCH   6  13
BRANCH   8  14
ATOM     14  O6  UNL     1      -1.744  75.773 -49.810  0.00  0.00    +0.000 OA
ATOM     15  H20 UNL     1      -1.619  76.089 -50.765  0.00  0.00    +0.000 HD
ENDBRANCH   8  14
ENDBRANCH   4  11
ENDBRANCH   2   5
ENDBRANCH   1   2
BRANCH   1  16
ATOM     16  C12 UNL     1      -9.341  72.225 -46.409  0.00  0.00    +0.000 C 
ATOM     17  O3  UNL     1     -10.270  71.506 -45.952  0.00  0.00    +0.000 OA
BRANCH  16  18
ATOM     18  C13 UNL     1      -7.969  71.985 -45.913  0.00  0.00    +0.000 C 
ATOM     19  C14 UNL     1      -7.044  71.299 -46.602  0.00  0.00    +0.000 C 
BRANCH  19  20
ATOM     20  C15 UNL     1      -5.662  71.068 -46.112  0.00  0.00    +0.000 A 
ATOM     21  C16 UNL     1      -4.525  71.350 -46.895  0.00  0.00    +0.000 A 
ATOM     22  C17 UNL     1      -3.230  71.126 -46.387  0.00  0.00    +0.000 A 
ATOM     23  C18 UNL     1      -3.078  70.628 -45.086  0.00  0.00    +0.000 A 
ATOM     24  C19 UNL     1      -4.204  70.365 -44.299  0.00  0.00    +0.000 A 
ATOM     25  C20 UNL     1      -5.486  70.589 -44.805  0.00  0.00    +0.000 A 
BRANCH  23  26
ATOM     26  O4  UNL     1      -1.799  70.403 -44.579  0.00  0.00    +0.000 OA
ATOM     27  H16 UNL     1      -1.027  71.028 -44.787  0.00  0.00    +0.000 HD
ENDBRANCH  23  26
BRANCH  22  28
ATOM     28  O5  UNL     1      -2.074  71.388 -47.140  0.00  0.00    +0.000 OA
ATOM     29  C21 UNL     1      -1.236  72.526 -46.964  0.00  0.00    +0.000 C 
ENDBRANCH  22  28
ENDBRANCH  19  20
ENDBRANCH  16  18
ENDBRANCH   1  16
TORSDOF 10
ENDMDL
MODEL 2
REMARK VINA RESULT:      -4.3      1.847      3.102
REMARK  Name = .\curcumin.pdb
REMARK  12 active torsions:
REMARK  status: ('A' for Active; 'I' for Inactive)
REMARK    1  A    between atoms: C1_1  and  O1_2
REMARK    2  A    between atoms: O1_2  and  C2_3
REMARK    3  A    between atoms: C4_5  and  O6_27
REMARK    4  A    between atoms: C7_8  and  C8_9
REMARK    5  A    between atoms: C9_10  and  C10_11
REMARK    6  A    between atoms: C10_11  and  C11_13
REMARK    7  A    between atoms: C11_13  and  C12_14
REMARK    8  A    between atoms: C12_14  and  C13_16
REMARK    9  A    between atoms: C14_17  and  C15_18
REMARK   10  A    between atoms: C17_20  and  O5_25
REMARK   11  A    between atoms: C18_21  and  O4_24
REMARK   12  A    between atoms: O5_25  and  C21_26
REMARK                            x       y       z     vdW  Elec       q    Type
REMARK                         _______ _______ _______ _____ _____    ______ ____
ROOT
ATOM      1  C11 UNL     1      -9.783  72.426 -46.835  0.00  0.00    +0.000 C 
ENDROOT
BRANCH   1   2
ATOM      2  C10 UNL     1      -9.395  73.451 -45.806  0.00  0.00    +0.000 C 
ATOM      3  O2  UNL     1     -10.274  73.904 -45.024  0.00  0.00    +0.000 OA
BRANCH   2   5
ATOM      4  C8  UNL     1      -7.339  73.909 -44.524  0.00  0.00    +0.000 C 
ATOM      5  C9  UNL     1      -7.990  73.888 -45.694  0.00  0.00    +0.000 C 
BRANCH   4  11
ATOM      6  C2  UNL     1      -5.306  75.214 -45.305  0.00  0.00    +0.000 A 
ATOM      7  C3  UNL     1      -3.945  75.540 -45.134  0.00  0.00    +0.000 A 
ATOM      8  C4  UNL     1      -3.212  75.001 -44.069  0.00  0.00    +0.000 A 
ATOM      9  C5  UNL     1      -3.833  74.140 -43.164  0.00  0.00    +0.000 A 
ATOM     10  C6  UNL     1      -5.177  73.802 -43.326  0.00  0.00    +0.000 A 
ATOM     11  C7  UNL     1      -5.918  74.310 -44.404  0.00  0.00    +0.000 A 
BRANCH   6  13
ATOM     12  C1  UNL     1      -5.780  75.690 -47.720  0.00  0.00    +0.000 C 
ATOM     13  O1  UNL     1      -6.074  75.791 -46.331  0.00  0.00    +0.000 OA
ENDBRANCH   6  13
BRANCH   8  14
ATOM     14  O6  UNL     1      -1.868  75.325 -43.897  0.00  0.00    +0.000 OA
ATOM     15  H20 UNL     1      -1.128  74.710 -44.217  0.00  0.00    +0.000 HD
ENDBRANCH   8  14
ENDBRANCH   4  11
ENDBRANCH   2   5
ENDBRANCH   1   2
BRANCH   1  16
ATOM     16  C12 UNL     1      -8.920  71.187 -46.769  0.00  0.00    +0.000 C 
ATOM     17  O3  UNL     1      -9.434  70.077 -46.467  0.00  0.00    +0.000 OA
BRANCH  16  18
ATOM     18  C13 UNL     1      -7.468  71.228 -47.050  0.00  0.00    +0.000 C 
ATOM     19  C14 UNL     1      -6.531  70.923 -46.139  0.00  0.00    +0.000 C 
BRANCH  19  20
ATOM     20  C15 UNL     1      -5.075  70.952 -46.422  0.00  0.00    +0.000 A 
ATOM     21  C16 UNL     1      -4.445  72.056 -47.033  0.00  0.00    +0.000 A 
ATOM     22  C17 UNL     1      -3.056  72.046 -47.274  0.00  0.00    +0.000 A 
ATOM     23  C18 UNL     1      -2.299  70.932 -46.891  0.00  0.00    +0.000 A 
ATOM     24  C19 UNL     1      -2.918  69.842 -46.268  0.00  0.00    +0.000 A 
ATOM     25  C20 UNL     1      -4.294  69.855 -46.030  0.00  0.00    +0.000 A 
BRANCH  23  26
ATOM     26  O4  UNL     1      -0.926  70.917 -47.129  0.00  0.00    +0.000 OA
ATOM     27  H16 UNL     1      -0.313  71.631 -46.750  0.00  0.00    +0.000 HD
ENDBRANCH  23  26
BRANCH  22  28
ATOM     28  O5  UNL     1      -2.395  73.124 -47.886  0.00  0.00    +0.000 OA
ATOM     29  C21 UNL     1      -1.442  73.959 -47.238  0.00  0.00    +0.000 C 
ENDBRANCH  22  28
ENDBRANCH  19  20
ENDBRANCH  16  18
ENDBRANCH   1  16
TORSDOF 10
ENDMDL
MODEL 3
REMARK VINA RESULT:      -4.1      1.450      4.771
REMARK  Name = .\curcumin.pdb
REMARK  12 active torsions:
REMARK  status: ('A' for Active; 'I' for Inactive)
REMARK    1  A    between atoms: C1_1  and  O1_2
REMARK    2  A    between atoms: O1_2  and  C2_3
REMARK    3  A    between atoms: C4_5  and  O6_27
REMARK    4  A    between atoms: C7_8  and  C8_9
REMARK    5  A    between atoms: C9_10  and  C10_11
REMARK    6  A    between atoms: C10_11  and  C11_13
REMARK    7  A    between atoms: C11_13  and  C12_14
REMARK    8  A    between atoms: C12_14  and  C13_16
REMARK    9  A    between atoms: C14_17  and  C15_18
REMARK   10  A    between atoms: C17_20  and  O5_25
REMARK   11  A    between atoms: C18_21  and  O4_24
REMARK   12  A    between atoms: O5_25  and  C21_26
REMARK                            x       y       z     vdW  Elec       q    Type
REMARK                         _______ _______ _______ _____ _____    ______ ____
ROOT
ATOM      1  C11 UNL     1      -8.973  72.725 -47.219  0.00  0.00    +0.000 C 
ENDROOT
BRANCH   1   2
ATOM      2  C10 UNL     1      -8.631  71.474 -46.460  0.00  0.00    +0.000 C 
ATOM      3  O2  UNL     1      -9.440  70.508 -46.466  0.00  0.00    +0.000 OA
BRANCH   2   5
ATOM      4  C8  UNL     1      -6.216  70.984 -46.367  0.00  0.00    +0.000 C 
ATOM      5  C9  UNL     1      -7.340  71.371 -45.752  0.00  0.00    +0.000 C 
BRANCH   4  11
ATOM      6  C2  UNL     1      -4.581  71.748 -44.581  0.00  0.00    +0.000 A 
ATOM      7  C3  UNL     1      -3.310  71.630 -43.981  0.00  0.00    +0.000 A 
ATOM      8  C4  UNL     1      -2.392  70.677 -44.439  0.00  0.00    +0.000 A 
ATOM      9  C5  UNL     1      -2.736  69.832 -45.495  0.00  0.00    +0.000 A 
ATOM     10  C6  UNL     1      -3.986  69.944 -46.104  0.00  0.00    +0.000 A 
ATOM     11  C7  UNL     1      -4.908  70.912 -45.676  0.00  0.00    +0.000 A 
BRANCH   6  13
ATOM     12  C1  UNL     1      -5.235  73.898 -43.471  0.00  0.00    +0.000 C 
ATOM     13  O1  UNL     1      -5.537  72.655 -44.096  0.00  0.00    +0.000 OA
ENDBRANCH   6  13
BRANCH   8  14
ATOM     14  O6  UNL     1      -1.137  70.557 -43.845  0.00  0.00    +0.000 OA
ATOM     15  H20 UNL     1      -0.892  71.077 -43.011  0.00  0.00    +0.000 HD
ENDBRANCH   8  14
ENDBRANCH   4  11
ENDBRANCH   2   5
ENDBRANCH   1   2
BRANCH   1  16
ATOM     16  C12 UNL     1      -8.391  73.965 -46.581  0.00  0.00    +0.000 C 
ATOM     17  O3  UNL     1      -9.119  74.708 -45.868  0.00  0.00    +0.000 OA
BRANCH  16  18
ATOM     18  C13 UNL     1      -6.974  74.348 -46.763  0.00  0.00    +0.000 C 
ATOM     19  C14 UNL     1      -6.306  74.179 -47.915  0.00  0.00    +0.000 C 
BRANCH  19  20
ATOM     20  C15 UNL     1      -4.888  74.573 -48.104  0.00  0.00    +0.000 A 
ATOM     21  C16 UNL     1      -3.855  74.110 -47.263  0.00  0.00    +0.000 A 
ATOM     22  C17 UNL     1      -2.520  74.501 -47.484  0.00  0.00    +0.000 A 
ATOM     23  C18 UNL     1      -2.221  75.349 -48.559  0.00  0.00    +0.000 A 
ATOM     24  C19 UNL     1      -3.240  75.796 -49.407  0.00  0.00    +0.000 A 
ATOM     25  C20 UNL     1      -4.563  75.406 -49.185  0.00  0.00    +0.000 A 
BRANCH  23  26
ATOM     26  O4  UNL     1      -0.901  75.741 -48.781  0.00  0.00    +0.000 OA
ATOM     27  H16 UNL     1      -0.678  76.591 -49.287  0.00  0.00    +0.000 HD
ENDBRANCH  23  26
BRANCH  22  28
ATOM     28  O5  UNL     1      -1.466  74.066 -46.664  0.00  0.00    +0.000 OA
ATOM     29  C21 UNL     1      -1.263  74.489 -45.320  0.00  0.00    +0.000 C 
ENDBRANCH  22  28
ENDBRANCH  19  20
ENDBRANCH  16  18
ENDBRANCH   1  16
TORSDOF 10
ENDMDL
MODEL 4
REMARK VINA RESULT:      -4.0      2.071      4.598
REMARK  Name = .\curcumin.pdb
REMARK  12 active torsions:
REMARK  status: ('A' for Active; 'I' for Inactive)
REMARK    1  A    between atoms: C1_1  and  O1_2
REMARK    2  A    between atoms: O1_2  and  C2_3
REMARK    3  A    between atoms: C4_5  and  O6_27
REMARK    4  A    between atoms: C7_8  and  C8_9
REMARK    5  A    between atoms: C9_10  and  C10_11
REMARK    6  A    between atoms: C10_11  and  C11_13
REMARK    7  A    between atoms: C11_13  and  C12_14
REMARK    8  A    between atoms: C12_14  and  C13_16
REMARK    9  A    between atoms: C14_17  and  C15_18
REMARK   10  A    between atoms: C17_20  and  O5_25
REMARK   11  A    between atoms: C18_21  and  O4_24
REMARK   12  A    between atoms: O5_25  and  C21_26
REMARK                            x       y       z     vdW  Elec       q    Type
REMARK                         _______ _______ _______ _____ _____    ______ ____
ROOT
ATOM      1  C11 UNL     1      -9.763  73.608 -44.928  0.00  0.00    +0.000 C 
ENDROOT
BRANCH   1   2
ATOM      2  C10 UNL     1      -9.644  72.660 -46.089  0.00  0.00    +0.000 C 
ATOM      3  O2  UNL     1     -10.659  72.421 -46.797  0.00  0.00    +0.000 OA
BRANCH   2   5
ATOM      4  C8  UNL     1      -7.392  71.853 -45.487  0.00  0.00    +0.000 C 
ATOM      5  C9  UNL     1      -8.339  72.050 -46.413  0.00  0.00    +0.000 C 
BRANCH   4  11
ATOM      6  C2  UNL     1      -5.242  71.672 -46.824  0.00  0.00    +0.000 A 
ATOM      7  C3  UNL     1      -4.026  71.000 -47.065  0.00  0.00    +0.000 A 
ATOM      8  C4  UNL     1      -3.647  69.908 -46.273  0.00  0.00    +0.000 A 
ATOM      9  C5  UNL     1      -4.475  69.483 -45.234  0.00  0.00    +0.000 A 
ATOM     10  C6  UNL     1      -5.686  70.132 -44.991  0.00  0.00    +0.000 A 
ATOM     11  C7  UNL     1      -6.094  71.210 -45.793  0.00  0.00    +0.000 A 
BRANCH   6  13
ATOM     12  C1  UNL     1      -5.260  73.035 -48.928  0.00  0.00    +0.000 C 
ATOM     13  O1  UNL     1      -5.611  72.806 -47.567  0.00  0.00    +0.000 OA
ENDBRANCH   6  13
BRANCH   8  14
ATOM     14  O6  UNL     1      -2.443  69.246 -46.507  0.00  0.00    +0.000 OA
ATOM     15  H20 UNL     1      -1.552  69.722 -46.434  0.00  0.00    +0.000 HD
ENDBRANCH   8  14
ENDBRANCH   4  11
ENDBRANCH   2   5
ENDBRANCH   1   2
BRANCH   1  16
ATOM     16  C12 UNL     1      -8.946  74.865 -45.124  0.00  0.00    +0.000 C 
ATOM     17  O3  UNL     1      -9.366  75.777 -45.885  0.00  0.00    +0.000 OA
BRANCH  16  18
ATOM     18  C13 UNL     1      -7.648  75.069 -44.444  0.00  0.00    +0.000 C 
ATOM     19  C14 UNL     1      -6.463  74.893 -45.048  0.00  0.00    +0.000 C 
BRANCH  19  20
ATOM     20  C15 UNL     1      -5.160  75.109 -44.372  0.00  0.00    +0.000 A 
ATOM     21  C16 UNL     1      -3.926  74.937 -45.033  0.00  0.00    +0.000 A 
ATOM     22  C17 UNL     1      -2.711  75.163 -44.356  0.00  0.00    +0.000 A 
ATOM     23  C18 UNL     1      -2.736  75.574 -43.017  0.00  0.00    +0.000 A 
ATOM     24  C19 UNL     1      -3.959  75.764 -42.363  0.00  0.00    +0.000 A 
ATOM     25  C20 UNL     1      -5.161  75.540 -43.037  0.00  0.00    +0.000 A 
BRANCH  23  26
ATOM     26  O4  UNL     1      -1.537  75.797 -42.343  0.00  0.00    +0.000 OA
ATOM     27  H16 UNL     1      -0.664  75.932 -42.841  0.00  0.00    +0.000 HD
ENDBRANCH  23  26
BRANCH  22  28
ATOM     28  O5  UNL     1      -1.464  74.995 -44.980  0.00  0.00    +0.000 OA
ATOM     29  C21 UNL     1      -1.041  73.800 -45.628  0.00  0.00    +0.000 C 
ENDBRANCH  22  28
ENDBRANCH  19  20
ENDBRANCH  16  18
ENDBRANCH   1  16
TORSDOF 10
ENDMDL
MODEL 5
REMARK VINA RESULT:      -3.8      2.798      6.813
REMARK  Name = .\curcumin.pdb
REMARK  12 active torsions:
REMARK  status: ('A' for Active; 'I' for Inactive)
REMARK    1  A    between atoms: C1_1  and  O1_2
REMARK    2  A    between atoms: O1_2  and  C2_3
REMARK    3  A    between atoms: C4_5  and  O6_27
REMARK    4  A    between atoms: C7_8  and  C8_9
REMARK    5  A    between atoms: C9_10  and  C10_11
REMARK    6  A    between atoms: C10_11  and  C11_13
REMARK    7  A    between atoms: C11_13  and  C12_14
REMARK    8  A    between atoms: C12_14  and  C13_16
REMARK    9  A    between atoms: C14_17  and  C15_18
REMARK   10  A    between atoms: C17_20  and  O5_25
REMARK   11  A    between atoms: C18_21  and  O4_24
REMARK   12  A    between atoms: O5_25  and  C21_26
REMARK                            x       y       z     vdW  Elec       q    Type
REMARK                         _______ _______ _______ _____ _____    ______ ____
ROOT
ATOM      1  C11 UNL     1      -5.303  70.885 -46.895  0.00  0.00    +0.000 C 
ENDROOT
BRANCH   1   2
ATOM      2  C10 UNL     1      -4.814  72.228 -47.362  0.00  0.00    +0.000 C 
ATOM      3  O2  UNL     1      -5.169  72.654 -48.494  0.00  0.00    +0.000 OA
BRANCH   2   5
ATOM      4  C8  UNL     1      -3.115  72.506 -45.596  0.00  0.00    +0.000 C 
ATOM      5  C9  UNL     1      -3.960  73.049 -46.482  0.00  0.00    +0.000 C 
BRANCH   4  11
ATOM      6  C2  UNL     1      -1.258  72.738 -43.881  0.00  0.00    +0.000 A 
ATOM      7  C3  UNL     1      -0.456  73.576 -43.079  0.00  0.00    +0.000 A 
ATOM      8  C4  UNL     1      -0.593  74.968 -43.145  0.00  0.00    +0.000 A 
ATOM      9  C5  UNL     1      -1.525  75.534 -44.016  0.00  0.00    +0.000 A 
ATOM     10  C6  UNL     1      -2.331  74.716 -44.808  0.00  0.00    +0.000 A 
ATOM     11  C7  UNL     1      -2.227  73.318 -44.734  0.00  0.00    +0.000 A 
BRANCH   6  13
ATOM     12  C1  UNL     1      -0.395  70.612 -42.871  0.00  0.00    +0.000 C 
ATOM     13  O1  UNL     1      -1.094  71.342 -43.873  0.00  0.00    +0.000 OA
ENDBRANCH   6  13
BRANCH   8  14
ATOM     14  O6  UNL     1       0.201  75.798 -42.356  0.00  0.00    +0.000 OA
ATOM     15  H20 UNL     1       0.617  76.644 -42.727  0.00  0.00    +0.000 HD
ENDBRANCH   8  14
ENDBRANCH   4  11
ENDBRANCH   2   5
ENDBRANCH   1   2
BRANCH   1  16
ATOM     16  C12 UNL     1      -6.145  70.981 -45.644  0.00  0.00    +0.000 C 
ATOM     17  O3  UNL     1      -5.797  70.366 -44.601  0.00  0.00    +0.000 OA
BRANCH  16  18
ATOM     18  C13 UNL     1      -7.387  71.784 -45.595  0.00  0.00    +0.000 C 
ATOM     19  C14 UNL     1      -8.382  71.658 -46.486  0.00  0.00    +0.000 C 
BRANCH  19  20
ATOM     20  C15 UNL     1      -9.634  72.454 -46.433  0.00  0.00    +0.000 A 
ATOM     21  C16 UNL     1     -10.540  72.366 -45.356  0.00  0.00    +0.000 A 
ATOM     22  C17 UNL     1     -11.713  73.147 -45.340  0.00  0.00    +0.000 A 
ATOM     23  C18 UNL     1     -11.968  74.027 -46.401  0.00  0.00    +0.000 A 
ATOM     24  C19 UNL     1     -11.062  74.130 -47.461  0.00  0.00    +0.000 A 
ATOM     25  C20 UNL     1      -9.901  73.355 -47.474  0.00  0.00    +0.000 A 
BRANCH  23  26
ATOM     26  O4  UNL     1     -13.128  74.800 -46.390  0.00  0.00    +0.000 OA
ATOM     27  H16 UNL     1     -14.023  74.419 -46.677  0.00  0.00    +0.000 HD
ENDBRANCH  23  26
BRANCH  22  28
ATOM     28  O5  UNL     1     -12.642  73.082 -44.289  0.00  0.00    +0.000 OA
ATOM     29  C21 UNL     1     -12.638  73.941 -43.153  0.00  0.00    +0.000 C 
ENDBRANCH  22  28
ENDBRANCH  19  20
ENDBRANCH  16  18
ENDBRANCH   1  16
TORSDOF 10
ENDMDL
MODEL 6
REMARK VINA RESULT:      -3.8      1.674      4.920
REMARK  Name = .\curcumin.pdb
REMARK  12 active torsions:
REMARK  status: ('A' for Active; 'I' for Inactive)
REMARK    1  A    between atoms: C1_1  and  O1_2
REMARK    2  A    between atoms: O1_2  and  C2_3
REMARK    3  A    between atoms: C4_5  and  O6_27
REMARK    4  A    between atoms: C7_8  and  C8_9
REMARK    5  A    between atoms: C9_10  and  C10_11
REMARK    6  A    between atoms: C10_11  and  C11_13
REMARK    7  A    between atoms: C11_13  and  C12_14
REMARK    8  A    between atoms: C12_14  and  C13_16
REMARK    9  A    between atoms: C14_17  and  C15_18
REMARK   10  A    between atoms: C17_20  and  O5_25
REMARK   11  A    between atoms: C18_21  and  O4_24
REMARK   12  A    between atoms: O5_25  and  C21_26
REMARK                            x       y       z     vdW  Elec       q    Type
REMARK                         _______ _______ _______ _____ _____    ______ ____
ROOT
ATOM      1  C11 UNL     1      -9.552  72.818 -47.319  0.00  0.00    +0.000 C 
ENDROOT
BRANCH   1   2
ATOM      2  C10 UNL     1      -9.604  72.555 -45.840  0.00  0.00    +0.000 C 
ATOM      3  O2  UNL     1     -10.677  72.138 -45.325  0.00  0.00    +0.000 OA
BRANCH   2   5
ATOM      4  C8  UNL     1      -7.179  72.377 -45.431  0.00  0.00    +0.000 C 
ATOM      5  C9  UNL     1      -8.396  72.747 -45.014  0.00  0.00    +0.000 C 
BRANCH   4  11
ATOM      6  C2  UNL     1      -5.111  71.537 -44.222  0.00  0.00    +0.000 A 
ATOM      7  C3  UNL     1      -3.969  71.823 -43.447  0.00  0.00    +0.000 A 
ATOM      8  C4  UNL     1      -3.652  73.144 -43.106  0.00  0.00    +0.000 A 
ATOM      9  C5  UNL     1      -4.469  74.188 -43.541  0.00  0.00    +0.000 A 
ATOM     10  C6  UNL     1      -5.608  73.918 -44.300  0.00  0.00    +0.000 A 
ATOM     11  C7  UNL     1      -5.955  72.598 -44.627  0.00  0.00    +0.000 A 
BRANCH   6  13
ATOM     12  C1  UNL     1      -4.467  69.302 -45.159  0.00  0.00    +0.000 C 
ATOM     13  O1  UNL     1      -5.412  70.224 -44.625  0.00  0.00    +0.000 OA
ENDBRANCH   6  13
BRANCH   8  14
ATOM     14  O6  UNL     1      -2.522  73.429 -42.343  0.00  0.00    +0.000 OA
ATOM     15  H20 UNL     1      -1.709  72.824 -42.351  0.00  0.00    +0.000 HD
ENDBRANCH   8  14
ENDBRANCH   4  11
ENDBRANCH   2   5
ENDBRANCH   1   2
BRANCH   1  16
ATOM     16  C12 UNL     1      -9.284  74.271 -47.639  0.00  0.00    +0.000 C 
ATOM     17  O3  UNL     1     -10.224  75.109 -47.595  0.00  0.00    +0.000 OA
BRANCH  16  18
ATOM     18  C13 UNL     1      -7.937  74.756 -48.008  0.00  0.00    +0.000 C 
ATOM     19  C14 UNL     1      -6.868  73.952 -48.120  0.00  0.00    +0.000 C 
BRANCH  19  20
ATOM     20  C15 UNL     1      -5.517  74.434 -48.501  0.00  0.00    +0.000 A 
ATOM     21  C16 UNL     1      -4.426  74.411 -47.609  0.00  0.00    +0.000 A 
ATOM     22  C17 UNL     1      -3.157  74.869 -48.016  0.00  0.00    +0.000 A 
ATOM     23  C18 UNL     1      -2.982  75.340 -49.324  0.00  0.00    +0.000 A 
ATOM     24  C19 UNL     1      -4.059  75.347 -50.217  0.00  0.00    +0.000 A 
ATOM     25  C20 UNL     1      -5.315  74.892 -49.812  0.00  0.00    +0.000 A 
BRANCH  23  26
ATOM     26  O4  UNL     1      -1.729  75.796 -49.730  0.00  0.00    +0.000 OA
ATOM     27  H16 UNL     1      -1.429  76.750 -49.558  0.00  0.00    +0.000 HD
ENDBRANCH  23  26
BRANCH  22  28
ATOM     28  O5  UNL     1      -2.048  74.868 -47.154  0.00  0.00    +0.000 OA
ATOM     29  C21 UNL     1      -2.018  74.235 -45.879  0.00  0.00    +0.000 C 
ENDBRANCH  22  28
ENDBRANCH  19  20
ENDBRANCH  16  18
ENDBRANCH   1  16
TORSDOF 10
ENDMDL
MODEL 7
REMARK VINA RESULT:      -3.6      2.489      6.033
REMARK  Name = .\curcumin.pdb
REMARK  12 active torsions:
REMARK  status: ('A' for Active; 'I' for Inactive)
REMARK    1  A    between atoms: C1_1  and  O1_2
REMARK    2  A    between atoms: O1_2  and  C2_3
REMARK    3  A    between atoms: C4_5  and  O6_27
REMARK    4  A    between atoms: C7_8  and  C8_9
REMARK    5  A    between atoms: C9_10  and  C10_11
REMARK    6  A    between atoms: C10_11  and  C11_13
REMARK    7  A    between atoms: C11_13  and  C12_14
REMARK    8  A    between atoms: C12_14  and  C13_16
REMARK    9  A    between atoms: C14_17  and  C15_18
REMARK   10  A    between atoms: C17_20  and  O5_25
REMARK   11  A    between atoms: C18_21  and  O4_24
REMARK   12  A    between atoms: O5_25  and  C21_26
REMARK                            x       y       z     vdW  Elec       q    Type
REMARK                         _______ _______ _______ _____ _____    ______ ____
ROOT
ATOM      1  C11 UNL     1      -5.463  73.189 -49.091  0.00  0.00    +0.000 C 
ENDROOT
BRANCH   1   2
ATOM      2  C10 UNL     1      -6.475  74.225 -48.688  0.00  0.00    +0.000 C 
ATOM      3  O2  UNL     1      -6.592  75.274 -49.376  0.00  0.00    +0.000 OA
BRANCH   2   5
ATOM      4  C8  UNL     1      -8.635  74.352 -47.504  0.00  0.00    +0.000 C 
ATOM      5  C9  UNL     1      -7.347  73.989 -47.520  0.00  0.00    +0.000 C 
BRANCH   4  11
ATOM      6  C2  UNL     1     -10.089  72.813 -46.103  0.00  0.00    +0.000 A 
ATOM      7  C3  UNL     1     -10.941  72.641 -44.992  0.00  0.00    +0.000 A 
ATOM      8  C4  UNL     1     -11.206  73.709 -44.126  0.00  0.00    +0.000 A 
ATOM      9  C5  UNL     1     -10.620  74.954 -44.358  0.00  0.00    +0.000 A 
ATOM     10  C6  UNL     1      -9.783  75.140 -45.458  0.00  0.00    +0.000 A 
ATOM     11  C7  UNL     1      -9.528  74.088 -46.352  0.00  0.00    +0.000 A 
BRANCH   6  13
ATOM     12  C1  UNL     1      -8.777  70.751 -46.662  0.00  0.00    +0.000 C 
ATOM     13  O1  UNL     1      -9.762  71.739 -46.948  0.00  0.00    +0.000 OA
ENDBRANCH   6  13
BRANCH   8  14
ATOM     14  O6  UNL     1     -12.045  73.540 -43.026  0.00  0.00    +0.000 OA
ATOM     15  H20 UNL     1     -12.834  72.904 -43.053  0.00  0.00    +0.000 HD
ENDBRANCH   8  14
ENDBRANCH   4  11
ENDBRANCH   2   5
ENDBRANCH   1   2
BRANCH   1  16
ATOM     16  C12 UNL     1      -4.053  73.733 -49.102  0.00  0.00    +0.000 C 
ATOM     17  O3  UNL     1      -3.500  74.026 -50.196  0.00  0.00    +0.000 OA
BRANCH  16  18
ATOM     18  C13 UNL     1      -3.283  73.938 -47.856  0.00  0.00    +0.000 C 
ATOM     19  C14 UNL     1      -2.903  72.935 -47.050  0.00  0.00    +0.000 C 
BRANCH  19  20
ATOM     20  C15 UNL     1      -2.120  73.136 -45.806  0.00  0.00    +0.000 A 
ATOM     21  C16 UNL     1      -2.018  72.147 -44.807  0.00  0.00    +0.000 A 
ATOM     22  C17 UNL     1      -1.255  72.375 -43.645  0.00  0.00    +0.000 A 
ATOM     23  C18 UNL     1      -0.583  73.595 -43.492  0.00  0.00    +0.000 A 
ATOM     24  C19 UNL     1      -0.666  74.573 -44.490  0.00  0.00    +0.000 A 
ATOM     25  C20 UNL     1      -1.423  74.343 -45.641  0.00  0.00    +0.000 A 
BRANCH  23  26
ATOM     26  O4  UNL     1       0.172  73.827 -42.344  0.00  0.00    +0.000 OA
ATOM     27  H16 UNL     1      -0.140  73.514 -41.431  0.00  0.00    +0.000 HD
ENDBRANCH  23  26
BRANCH  22  28
ATOM     28  O5  UNL     1      -1.137  71.417 -42.625  0.00  0.00    +0.000 OA
ATOM     29  C21 UNL     1      -0.065  70.486 -42.513  0.00  0.00    +0.000 C 
ENDBRANCH  22  28
ENDBRANCH  19  20
ENDBRANCH  16  18
ENDBRANCH   1  16
TORSDOF 10
ENDMDL
MODEL 8
REMARK VINA RESULT:      -3.5      1.838      5.797
REMARK  Name = .\curcumin.pdb
REMARK  12 active torsions:
REMARK  status: ('A' for Active; 'I' for Inactive)
REMARK    1  A    between atoms: C1_1  and  O1_2
REMARK    2  A    between atoms: O1_2  and  C2_3
REMARK    3  A    between atoms: C4_5  and  O6_27
REMARK    4  A    between atoms: C7_8  and  C8_9
REMARK    5  A    between atoms: C9_10  and  C10_11
REMARK    6  A    between atoms: C10_11  and  C11_13
REMARK    7  A    between atoms: C11_13  and  C12_14
REMARK    8  A    between atoms: C12_14  and  C13_16
REMARK    9  A    between atoms: C14_17  and  C15_18
REMARK   10  A    between atoms: C17_20  and  O5_25
REMARK   11  A    between atoms: C18_21  and  O4_24
REMARK   12  A    between atoms: O5_25  and  C21_26
REMARK                            x       y       z     vdW  Elec       q    Type
REMARK                         _______ _______ _______ _____ _____    ______ ____
ROOT
ATOM      1  C11 UNL     1      -4.946  70.467 -44.245  0.00  0.00    +0.000 C 
ENDROOT
BRANCH   1   2
ATOM      2  C10 UNL     1      -5.159  70.471 -45.733  0.00  0.00    +0.000 C 
ATOM      3  O2  UNL     1      -4.277  69.975 -46.485  0.00  0.00    +0.000 OA
BRANCH   2   5
ATOM      4  C8  UNL     1      -6.933  72.178 -45.887  0.00  0.00    +0.000 C 
ATOM      5  C9  UNL     1      -6.410  71.015 -46.297  0.00  0.00    +0.000 C 
BRANCH   4  11
ATOM      6  C2  UNL     1      -8.157  73.913 -47.278  0.00  0.00    +0.000 A 
ATOM      7  C3  UNL     1      -9.375  74.408 -47.789  0.00  0.00    +0.000 A 
ATOM      8  C4  UNL     1     -10.579  73.743 -47.528  0.00  0.00    +0.000 A 
ATOM      9  C5  UNL     1     -10.576  72.576 -46.761  0.00  0.00    +0.000 A 
ATOM     10  C6  UNL     1      -9.380  72.081 -46.242  0.00  0.00    +0.000 A 
ATOM     11  C7  UNL     1      -8.167  72.751 -46.470  0.00  0.00    +0.000 A 
BRANCH   6  13
ATOM     12  C1  UNL     1      -6.637  75.199 -48.803  0.00  0.00    +0.000 C 
ATOM     13  O1  UNL     1      -6.932  74.532 -47.580  0.00  0.00    +0.000 OA
ENDBRANCH   6  13
BRANCH   8  14
ATOM     14  O6  UNL     1     -11.783  74.228 -48.034  0.00  0.00    +0.000 OA
ATOM     15  H20 UNL     1     -12.054  74.074 -48.998  0.00  0.00    +0.000 HD
ENDBRANCH   8  14
ENDBRANCH   4  11
ENDBRANCH   2   5
ENDBRANCH   1   2
BRANCH   1  16
ATOM     16  C12 UNL     1      -4.328  71.753 -43.747  0.00  0.00    +0.000 C 
ATOM     17  O3  UNL     1      -4.453  72.086 -42.538  0.00  0.00    +0.000 OA
BRANCH  16  18
ATOM     18  C13 UNL     1      -3.567  72.653 -44.641  0.00  0.00    +0.000 C 
ATOM     19  C14 UNL     1      -2.348  72.361 -45.120  0.00  0.00    +0.000 C 
BRANCH  19  20
ATOM     20  C15 UNL     1      -1.588  73.257 -46.026  0.00  0.00    +0.000 A 
ATOM     21  C16 UNL     1      -2.205  73.980 -47.068  0.00  0.00    +0.000 A 
ATOM     22  C17 UNL     1      -1.448  74.828 -47.899  0.00  0.00    +0.000 A 
ATOM     23  C18 UNL     1      -0.071  74.961 -47.676  0.00  0.00    +0.000 A 
ATOM     24  C19 UNL     1       0.542  74.260 -46.631  0.00  0.00    +0.000 A 
ATOM     25  C20 UNL     1      -0.212  73.420 -45.809  0.00  0.00    +0.000 A 
BRANCH  23  26
ATOM     26  O4  UNL     1       0.683  75.798 -48.497  0.00  0.00    +0.000 OA
ATOM     27  H16 UNL     1       1.512  75.465 -48.977  0.00  0.00    +0.000 HD
ENDBRANCH  23  26
BRANCH  22  28
ATOM     28  O5  UNL     1      -2.026  75.558 -48.951  0.00  0.00    +0.000 OA
ATOM     29  C21 UNL     1      -3.167  75.138 -49.692  0.00  0.00    +0.000 C 
ENDBRANCH  22  28
ENDBRANCH  19  20
ENDBRANCH  16  18
ENDBRANCH   1  16
TORSDOF 10
ENDMDL
MODEL 9
REMARK VINA RESULT:      -3.3      2.605      5.941
REMARK  Name = .\curcumin.pdb
REMARK  12 active torsions:
REMARK  status: ('A' for Active; 'I' for Inactive)
REMARK    1  A    between atoms: C1_1  and  O1_2
REMARK    2  A    between atoms: O1_2  and  C2_3
REMARK    3  A    between atoms: C4_5  and  O6_27
REMARK    4  A    between atoms: C7_8  and  C8_9
REMARK    5  A    between atoms: C9_10  and  C10_11
REMARK    6  A    between atoms: C10_11  and  C11_13
REMARK    7  A    between atoms: C11_13  and  C12_14
REMARK    8  A    between atoms: C12_14  and  C13_16
REMARK    9  A    between atoms: C14_17  and  C15_18
REMARK   10  A    between atoms: C17_20  and  O5_25
REMARK   11  A    between atoms: C18_21  and  O4_24
REMARK   12  A    between atoms: O5_25  and  C21_26
REMARK                            x       y       z     vdW  Elec       q    Type
REMARK                         _______ _______ _______ _____ _____    ______ ____
ROOT
ATOM      1  C11 UNL     1      -5.809  70.901 -47.214  0.00  0.00    +0.000 C 
ENDROOT
BRANCH   1   2
ATOM      2  C10 UNL     1      -6.390  71.153 -45.851  0.00  0.00    +0.000 C 
ATOM      3  O2  UNL     1      -5.817  70.673 -44.837  0.00  0.00    +0.000 OA
BRANCH   2   5
ATOM      4  C8  UNL     1      -8.325  72.383 -46.762  0.00  0.00    +0.000 C 
ATOM      5  C9  UNL     1      -7.598  71.991 -45.708  0.00  0.00    +0.000 C 
BRANCH   4  11
ATOM      6  C2  UNL     1      -9.864  74.259 -47.506  0.00  0.00    +0.000 A 
ATOM      7  C3  UNL     1     -11.052  74.993 -47.309  0.00  0.00    +0.000 A 
ATOM      8  C4  UNL     1     -11.936  74.652 -46.277  0.00  0.00    +0.000 A 
ATOM      9  C5  UNL     1     -11.645  73.575 -45.439  0.00  0.00    +0.000 A 
ATOM     10  C6  UNL     1     -10.468  72.847 -45.617  0.00  0.00    +0.000 A 
ATOM     11  C7  UNL     1      -9.557  73.192 -46.629  0.00  0.00    +0.000 A 
BRANCH   6  13
ATOM     12  C1  UNL     1      -8.024  75.588 -48.570  0.00  0.00    +0.000 C 
ATOM     13  O1  UNL     1      -8.995  74.547 -48.572  0.00  0.00    +0.000 OA
ENDBRANCH   6  13
BRANCH   8  14
ATOM     14  O6  UNL     1     -13.112  75.374 -46.083  0.00  0.00    +0.000 OA
ATOM     15  H20 UNL     1     -13.972  74.921 -45.796  0.00  0.00    +0.000 HD
ENDBRANCH   8  14
ENDBRANCH   4  11
ENDBRANCH   2   5
ENDBRANCH   1   2
BRANCH   1  16
ATOM     16  C12 UNL     1      -4.708  71.876 -47.562  0.00  0.00    +0.000 C 
ATOM     17  O3  UNL     1      -4.693  72.433 -48.692  0.00  0.00    +0.000 OA
BRANCH  16  18
ATOM     18  C13 UNL     1      -3.626  72.207 -46.609  0.00  0.00    +0.000 C 
ATOM     19  C14 UNL     1      -3.521  73.396 -45.996  0.00  0.00    +0.000 C 
BRANCH  19  20
ATOM     20  C15 UNL     1      -2.443  73.727 -45.031  0.00  0.00    +0.000 A 
ATOM     21  C16 UNL     1      -1.661  72.737 -44.402  0.00  0.00    +0.000 A 
ATOM     22  C17 UNL     1      -0.640  73.095 -43.499  0.00  0.00    +0.000 A 
ATOM     23  C18 UNL     1      -0.397  74.450 -43.237  0.00  0.00    +0.000 A 
ATOM     24  C19 UNL     1      -1.159  75.436 -43.874  0.00  0.00    +0.000 A 
ATOM     25  C20 UNL     1      -2.170  75.078 -44.769  0.00  0.00    +0.000 A 
BRANCH  23  26
ATOM     26  O4  UNL     1       0.610  74.810 -42.344  0.00  0.00    +0.000 OA
ATOM     27  H16 UNL     1       1.562  74.972 -42.654  0.00  0.00    +0.000 HD
ENDBRANCH  23  26
BRANCH  22  28
ATOM     28  O5  UNL     1       0.154  72.137 -42.848  0.00  0.00    +0.000 OA
ATOM     29  C21 UNL     1      -0.268  70.813 -42.540  0.00  0.00    +0.000 C 
ENDBRANCH  22  28
ENDBRANCH  19  20
ENDBRANCH  16  18
ENDBRANCH   1  16
TORSDOF 10
ENDMDL
