MODEL 1
REMARK VINA RESULT:      -4.1      0.000      0.000
REMARK  Name = .\curcumin.pdb
REMARK  12 active torsions:
REMARK  status: ('A' for Active; 'I' for Inactive)
REMARK    1  A    between atoms: C1_1  and  O1_2
REMARK    2  A    between atoms: O1_2  and  C2_3
REMARK    3  A    between atoms: C4_5  and  O6_27
REMARK    4  A    between atoms: C7_8  and  C8_9
REMARK    5  A    between atoms: C9_10  and  C10_11
REMARK    6  A    between atoms: C10_11  and  C11_13
REMARK    7  A    between atoms: C11_13  and  C12_14
REMARK    8  A    between atoms: C12_14  and  C13_16
REMARK    9  A    between atoms: C14_17  and  C15_18
REMARK   10  A    between atoms: C17_20  and  O5_25
REMARK   11  A    between atoms: C18_21  and  O4_24
REMARK   12  A    between atoms: O5_25  and  C21_26
REMARK                            x       y       z     vdW  Elec       q    Type
REMARK                         _______ _______ _______ _____ _____    ______ ____
ROOT
ATOM      1  C11 UNL     1     -14.928  27.824   2.915  0.00  0.00    +0.000 C 
ENDROOT
BRANCH   1   2
ATOM      2  C10 UNL     1     -14.544  27.963   1.469  0.00  0.00    +0.000 C 
ATOM      3  O2  UNL     1     -15.153  27.284   0.600  0.00  0.00    +0.000 OA
BRANCH   2   5
ATOM      4  C8  UNL     1     -13.504  29.553  -0.105  0.00  0.00    +0.000 C 
ATOM      5  C9  UNL     1     -13.490  28.919   1.074  0.00  0.00    +0.000 C 
BRANCH   4  11
ATOM      6  C2  UNL     1     -12.154  30.810  -1.848  0.00  0.00    +0.000 A 
ATOM      7  C3  UNL     1     -11.150  31.756  -2.144  0.00  0.00    +0.000 A 
ATOM      8  C4  UNL     1     -10.497  32.446  -1.115  0.00  0.00    +0.000 A 
ATOM      9  C5  UNL     1     -10.843  32.201   0.215  0.00  0.00    +0.000 A 
ATOM     10  C6  UNL     1     -11.827  31.261   0.521  0.00  0.00    +0.000 A 
ATOM     11  C7  UNL     1     -12.473  30.541  -0.496  0.00  0.00    +0.000 A 
BRANCH   6  13
ATOM     12  C1  UNL     1     -12.571  30.257  -4.258  0.00  0.00    +0.000 C 
ATOM     13  O1  UNL     1     -12.863  30.153  -2.868  0.00  0.00    +0.000 OA
ENDBRANCH   6  13
BRANCH   8  14
ATOM     14  O6  UNL     1      -9.508  33.383  -1.405  0.00  0.00    +0.000 OA
ATOM     15  H20 UNL     1      -8.523  33.156  -1.334  0.00  0.00    +0.000 HD
ENDBRANCH   8  14
ENDBRANCH   4  11
ENDBRANCH   2   5
ENDBRANCH   1   2
BRANCH   1  16
ATOM     16  C12 UNL     1     -14.269  28.866   3.790  0.00  0.00    +0.000 C 
ATOM     17  O3  UNL     1     -14.834  29.975   3.985  0.00  0.00    +0.000 OA
BRANCH  16  18
ATOM     18  C13 UNL     1     -12.961  28.629   4.440  0.00  0.00    +0.000 C 
ATOM     19  C14 UNL     1     -12.250  29.595   5.042  0.00  0.00    +0.000 C 
BRANCH  19  20
ATOM     20  C15 UNL     1     -10.944  29.358   5.704  0.00  0.00    +0.000 A 
ATOM     21  C16 UNL     1     -10.092  30.411   6.095  0.00  0.00    +0.000 A 
ATOM     22  C17 UNL     1      -8.864  30.142   6.732  0.00  0.00    +0.000 A 
ATOM     23  C18 UNL     1      -8.497  28.814   6.987  0.00  0.00    +0.000 A 
ATOM     24  C19 UNL     1      -9.349  27.767   6.617  0.00  0.00    +0.000 A 
ATOM     25  C20 UNL     1     -10.565  28.037   5.987  0.00  0.00    +0.000 A 
BRANCH  23  26
ATOM     26  O4  UNL     1      -7.283  28.542   7.614  0.00  0.00    +0.000 OA
ATOM     27  H16 UNL     1      -6.596  27.923   7.197  0.00  0.00    +0.000 HD
ENDBRANCH  23  26
BRANCH  22  28
ATOM     28  O5  UNL     1      -7.986  31.164   7.129  0.00  0.00    +0.000 OA
ATOM     29  C21 UNL     1      -8.111  31.913   8.333  0.00  0.00    +0.000 C 
ENDBRANCH  22  28
ENDBRANCH  19  20
ENDBRANCH  16  18
ENDBRANCH   1  16
TORSDOF 10
ENDMDL
MODEL 2
REMARK VINA RESULT:      -3.7      1.550      7.870
REMARK  Name = .\curcumin.pdb
REMARK  12 active torsions:
REMARK  status: ('A' for Active; 'I' for Inactive)
REMARK    1  A    between atoms: C1_1  and  O1_2
REMARK    2  A    between atoms: O1_2  and  C2_3
REMARK    3  A    between atoms: C4_5  and  O6_27
REMARK    4  A    between atoms: C7_8  and  C8_9
REMARK    5  A    between atoms: C9_10  and  C10_11
REMARK    6  A    between atoms: C10_11  and  C11_13
REMARK    7  A    between atoms: C11_13  and  C12_14
REMARK    8  A    between atoms: C12_14  and  C13_16
REMARK    9  A    between atoms: C14_17  and  C15_18
REMARK   10  A    between atoms: C17_20  and  O5_25
REMARK   11  A    between atoms: C18_21  and  O4_24
REMARK   12  A    between atoms: O5_25  and  C21_26
REMARK                            x       y       z     vdW  Elec       q    Type
REMARK                         _______ _______ _______ _____ _____    ______ ____
ROOT
ATOM      1  C11 UNL     1     -15.033  28.932   3.222  0.00  0.00    +0.000 C 
ENDROOT
BRANCH   1   2
ATOM      2  C10 UNL     1     -14.476  29.532   4.482  0.00  0.00    +0.000 C 
ATOM      3  O2  UNL     1     -15.153  30.390   5.109  0.00  0.00    +0.000 OA
BRANCH   2   5
ATOM      4  C8  UNL     1     -12.818  29.215   6.281  0.00  0.00    +0.000 C 
ATOM      5  C9  UNL     1     -13.165  29.086   4.994  0.00  0.00    +0.000 C 
BRANCH   4  11
ATOM      6  C2  UNL     1     -10.286  29.063   6.205  0.00  0.00    +0.000 A 
ATOM      7  C3  UNL     1      -9.091  28.562   6.763  0.00  0.00    +0.000 A 
ATOM      8  C4  UNL     1      -9.121  27.778   7.923  0.00  0.00    +0.000 A 
ATOM      9  C5  UNL     1     -10.342  27.493   8.538  0.00  0.00    +0.000 A 
ATOM     10  C6  UNL     1     -11.531  27.974   7.991  0.00  0.00    +0.000 A 
ATOM     11  C7  UNL     1     -11.522  28.738   6.813  0.00  0.00    +0.000 A 
BRANCH   6  13
ATOM     12  C1  UNL     1      -9.137  30.632   4.623  0.00  0.00    +0.000 C 
ATOM     13  O1  UNL     1     -10.271  29.901   5.078  0.00  0.00    +0.000 OA
ENDBRANCH   6  13
BRANCH   8  14
ATOM     14  O6  UNL     1      -7.942  27.284   8.478  0.00  0.00    +0.000 OA
ATOM     15  H20 UNL     1      -7.944  26.739   9.332  0.00  0.00    +0.000 HD
ENDBRANCH   8  14
ENDBRANCH   4  11
ENDBRANCH   2   5
ENDBRANCH   1   2
BRANCH   1  16
ATOM     16  C12 UNL     1     -13.972  28.249   2.389  0.00  0.00    +0.000 C 
ATOM     17  O3  UNL     1     -13.779  27.009   2.507  0.00  0.00    +0.000 OA
BRANCH  16  18
ATOM     18  C13 UNL     1     -13.136  28.994   1.423  0.00  0.00    +0.000 C 
ATOM     19  C14 UNL     1     -12.841  30.297   1.552  0.00  0.00    +0.000 C 
BRANCH  19  20
ATOM     20  C15 UNL     1     -11.992  31.043   0.591  0.00  0.00    +0.000 A 
ATOM     21  C16 UNL     1     -12.236  31.036  -0.798  0.00  0.00    +0.000 A 
ATOM     22  C17 UNL     1     -11.412  31.768  -1.675  0.00  0.00    +0.000 A 
ATOM     23  C18 UNL     1     -10.348  32.517  -1.155  0.00  0.00    +0.000 A 
ATOM     24  C19 UNL     1     -10.114  32.541   0.224  0.00  0.00    +0.000 A 
ATOM     25  C20 UNL     1     -10.933  31.816   1.091  0.00  0.00    +0.000 A 
BRANCH  23  26
ATOM     26  O4  UNL     1      -9.528  33.241  -2.019  0.00  0.00    +0.000 OA
ATOM     27  H16 UNL     1      -9.605  33.150  -3.026  0.00  0.00    +0.000 HD
ENDBRANCH  23  26
BRANCH  22  28
ATOM     28  O5  UNL     1     -11.619  31.779  -3.064  0.00  0.00    +0.000 OA
ATOM     29  C21 UNL     1     -12.437  32.721  -3.750  0.00  0.00    +0.000 C 
ENDBRANCH  22  28
ENDBRANCH  19  20
ENDBRANCH  16  18
ENDBRANCH   1  16
TORSDOF 10
ENDMDL
MODEL 3
REMARK VINA RESULT:      -3.5      1.220      2.092
REMARK  Name = .\curcumin.pdb
REMARK  12 active torsions:
REMARK  status: ('A' for Active; 'I' for Inactive)
REMARK    1  A    between atoms: C1_1  and  O1_2
REMARK    2  A    between atoms: O1_2  and  C2_3
REMARK    3  A    between atoms: C4_5  and  O6_27
REMARK    4  A    between atoms: C7_8  and  C8_9
REMARK    5  A    between atoms: C9_10  and  C10_11
REMARK    6  A    between atoms: C10_11  and  C11_13
REMARK    7  A    between atoms: C11_13  and  C12_14
REMARK    8  A    between atoms: C12_14  and  C13_16
REMARK    9  A    between atoms: C14_17  and  C15_18
REMARK   10  A    between atoms: C17_20  and  O5_25
REMARK   11  A    between atoms: C18_21  and  O4_24
REMARK   12  A    between atoms: O5_25  and  C21_26
REMARK                            x       y       z     vdW  Elec       q    Type
REMARK                         _______ _______ _______ _____ _____    ______ ____
ROOT
ATOM      1  C11 UNL     1     -15.130  29.048   2.981  0.00  0.00    +0.000 C 
ENDROOT
BRANCH   1   2
ATOM      2  C10 UNL     1     -14.165  28.234   2.165  0.00  0.00    +0.000 C 
ATOM      3  O2  UNL     1     -13.864  27.070   2.545  0.00  0.00    +0.000 OA
BRANCH   2   5
ATOM      4  C8  UNL     1     -13.346  30.087   0.760  0.00  0.00    +0.000 C 
ATOM      5  C9  UNL     1     -13.612  28.784   0.913  0.00  0.00    +0.000 C 
BRANCH   4  11
ATOM      6  C2  UNL     1     -11.599  31.458  -0.470  0.00  0.00    +0.000 A 
ATOM      7  C3  UNL     1     -11.103  31.964  -1.689  0.00  0.00    +0.000 A 
ATOM      8  C4  UNL     1     -11.727  31.642  -2.901  0.00  0.00    +0.000 A 
ATOM      9  C5  UNL     1     -12.847  30.809  -2.904  0.00  0.00    +0.000 A 
ATOM     10  C6  UNL     1     -13.354  30.310  -1.705  0.00  0.00    +0.000 A 
ATOM     11  C7  UNL     1     -12.757  30.645  -0.479  0.00  0.00    +0.000 A 
BRANCH   6  13
ATOM     12  C1  UNL     1      -9.922  32.689   0.930  0.00  0.00    +0.000 C 
ATOM     13  O1  UNL     1     -10.950  31.721   0.749  0.00  0.00    +0.000 OA
ENDBRANCH   6  13
BRANCH   8  14
ATOM     14  O6  UNL     1     -11.237  32.138  -4.107  0.00  0.00    +0.000 OA
ATOM     15  H20 UNL     1     -11.661  32.935  -4.565  0.00  0.00    +0.000 HD
ENDBRANCH   8  14
ENDBRANCH   4  11
ENDBRANCH   2   5
ENDBRANCH   1   2
BRANCH   1  16
ATOM     16  C12 UNL     1     -14.495  29.620   4.227  0.00  0.00    +0.000 C 
ATOM     17  O3  UNL     1     -15.154  30.393   4.973  0.00  0.00    +0.000 OA
BRANCH  16  18
ATOM     18  C13 UNL     1     -13.102  29.302   4.612  0.00  0.00    +0.000 C 
ATOM     19  C14 UNL     1     -12.568  29.640   5.796  0.00  0.00    +0.000 C 
BRANCH  19  20
ATOM     20  C15 UNL     1     -11.176  29.311   6.190  0.00  0.00    +0.000 A 
ATOM     21  C16 UNL     1     -10.135  30.261   6.154  0.00  0.00    +0.000 A 
ATOM     22  C17 UNL     1      -8.829  29.910   6.547  0.00  0.00    +0.000 A 
ATOM     23  C18 UNL     1      -8.570  28.605   6.987  0.00  0.00    +0.000 A 
ATOM     24  C19 UNL     1      -9.604  27.664   7.041  0.00  0.00    +0.000 A 
ATOM     25  C20 UNL     1     -10.898  28.016   6.652  0.00  0.00    +0.000 A 
BRANCH  23  26
ATOM     26  O4  UNL     1      -7.279  28.252   7.375  0.00  0.00    +0.000 OA
ATOM     27  H16 UNL     1      -6.799  27.458   6.964  0.00  0.00    +0.000 HD
ENDBRANCH  23  26
BRANCH  22  28
ATOM     28  O5  UNL     1      -7.765  30.827   6.518  0.00  0.00    +0.000 OA
ATOM     29  C21 UNL     1      -7.527  31.818   7.513  0.00  0.00    +0.000 C 
ENDBRANCH  22  28
ENDBRANCH  19  20
ENDBRANCH  16  18
ENDBRANCH   1  16
TORSDOF 10
ENDMDL
MODEL 4
REMARK VINA RESULT:      -3.2      1.578      8.096
REMARK  Name = .\curcumin.pdb
REMARK  12 active torsions:
REMARK  status: ('A' for Active; 'I' for Inactive)
REMARK    1  A    between atoms: C1_1  and  O1_2
REMARK    2  A    between atoms: O1_2  and  C2_3
REMARK    3  A    between atoms: C4_5  and  O6_27
REMARK    4  A    between atoms: C7_8  and  C8_9
REMARK    5  A    between atoms: C9_10  and  C10_11
REMARK    6  A    between atoms: C10_11  and  C11_13
REMARK    7  A    between atoms: C11_13  and  C12_14
REMARK    8  A    between atoms: C12_14  and  C13_16
REMARK    9  A    between atoms: C14_17  and  C15_18
REMARK   10  A    between atoms: C17_20  and  O5_25
REMARK   11  A    between atoms: C18_21  and  O4_24
REMARK   12  A    between atoms: O5_25  and  C21_26
REMARK                            x       y       z     vdW  Elec       q    Type
REMARK                         _______ _______ _______ _____ _____    ______ ____
ROOT
ATOM      1  C11 UNL     1     -15.116  28.932   3.043  0.00  0.00    +0.000 C 
ENDROOT
BRANCH   1   2
ATOM      2  C10 UNL     1     -14.416  29.405   4.287  0.00  0.00    +0.000 C 
ATOM      3  O2  UNL     1     -14.994  30.231   5.044  0.00  0.00    +0.000 OA
BRANCH   2   5
ATOM      4  C8  UNL     1     -12.492  29.127   5.804  0.00  0.00    +0.000 C 
ATOM      5  C9  UNL     1     -13.084  28.872   4.630  0.00  0.00    +0.000 C 
BRANCH   4  11
ATOM      6  C2  UNL     1     -11.024  27.547   7.143  0.00  0.00    +0.000 A 
ATOM      7  C3  UNL     1      -9.732  27.073   7.452  0.00  0.00    +0.000 A 
ATOM      8  C4  UNL     1      -8.609  27.582   6.788  0.00  0.00    +0.000 A 
ATOM      9  C5  UNL     1      -8.767  28.562   5.807  0.00  0.00    +0.000 A 
ATOM     10  C6  UNL     1     -10.038  29.047   5.498  0.00  0.00    +0.000 A 
ATOM     11  C7  UNL     1     -11.172  28.568   6.174  0.00  0.00    +0.000 A 
BRANCH   6  13
ATOM     12  C1  UNL     1     -12.946  27.665   8.749  0.00  0.00    +0.000 C 
ATOM     13  O1  UNL     1     -12.168  27.006   7.755  0.00  0.00    +0.000 OA
ENDBRANCH   6  13
BRANCH   8  14
ATOM     14  O6  UNL     1      -7.333  27.112   7.090  0.00  0.00    +0.000 OA
ATOM     15  H20 UNL     1      -7.027  26.187   6.810  0.00  0.00    +0.000 HD
ENDBRANCH   8  14
ENDBRANCH   4  11
ENDBRANCH   2   5
ENDBRANCH   1   2
BRANCH   1  16
ATOM     16  C12 UNL     1     -14.169  28.291   2.056  0.00  0.00    +0.000 C 
ATOM     17  O3  UNL     1     -14.035  27.038   2.034  0.00  0.00    +0.000 OA
BRANCH  16  18
ATOM     18  C13 UNL     1     -13.378  29.091   1.096  0.00  0.00    +0.000 C 
ATOM     19  C14 UNL     1     -12.928  30.328   1.360  0.00  0.00    +0.000 C 
BRANCH  19  20
ATOM     20  C15 UNL     1     -12.124  31.128   0.404  0.00  0.00    +0.000 A 
ATOM     21  C16 UNL     1     -12.377  31.126  -0.984  0.00  0.00    +0.000 A 
ATOM     22  C17 UNL     1     -11.596  31.909  -1.856  0.00  0.00    +0.000 A 
ATOM     23  C18 UNL     1     -10.567  32.705  -1.333  0.00  0.00    +0.000 A 
ATOM     24  C19 UNL     1     -10.326  32.724   0.046  0.00  0.00    +0.000 A 
ATOM     25  C20 UNL     1     -11.103  31.947   0.907  0.00  0.00    +0.000 A 
BRANCH  23  26
ATOM     26  O4  UNL     1      -9.790  33.480  -2.192  0.00  0.00    +0.000 OA
ATOM     27  H16 UNL     1     -10.156  33.824  -3.074  0.00  0.00    +0.000 HD
ENDBRANCH  23  26
BRANCH  22  28
ATOM     28  O5  UNL     1     -11.812  31.927  -3.244  0.00  0.00    +0.000 OA
ATOM     29  C21 UNL     1     -12.479  30.900  -3.970  0.00  0.00    +0.000 C 
ENDBRANCH  22  28
ENDBRANCH  19  20
ENDBRANCH  16  18
ENDBRANCH   1  16
TORSDOF 10
ENDMDL
MODEL 5
REMARK VINA RESULT:      -2.4      2.574      9.400
REMARK  Name = .\curcumin.pdb
REMARK  12 active torsions:
REMARK  status: ('A' for Active; 'I' for Inactive)
REMARK    1  A    between atoms: C1_1  and  O1_2
REMARK    2  A    between atoms: O1_2  and  C2_3
REMARK    3  A    between atoms: C4_5  and  O6_27
REMARK    4  A    between atoms: C7_8  and  C8_9
REMARK    5  A    between atoms: C9_10  and  C10_11
REMARK    6  A    between atoms: C10_11  and  C11_13
REMARK    7  A    between atoms: C11_13  and  C12_14
REMARK    8  A    between atoms: C12_14  and  C13_16
REMARK    9  A    between atoms: C14_17  and  C15_18
REMARK   10  A    between atoms: C17_20  and  O5_25
REMARK   11  A    between atoms: C18_21  and  O4_24
REMARK   12  A    between atoms: O5_25  and  C21_26
REMARK                            x       y       z     vdW  Elec       q    Type
REMARK                         _______ _______ _______ _____ _____    ______ ____
ROOT
ATOM      1  C11 UNL     1     -11.114  32.339   2.309  0.00  0.00    +0.000 C 
ENDROOT
BRANCH   1   2
ATOM      2  C10 UNL     1     -10.521  31.313   3.233  0.00  0.00    +0.000 C 
ATOM      3  O2  UNL     1      -9.269  31.196   3.304  0.00  0.00    +0.000 OA
BRANCH   2   5
ATOM      4  C8  UNL     1     -11.089  30.154   5.335  0.00  0.00    +0.000 C 
ATOM      5  C9  UNL     1     -11.404  30.483   4.076  0.00  0.00    +0.000 C 
BRANCH   4  11
ATOM      6  C2  UNL     1     -11.774  29.223   7.596  0.00  0.00    +0.000 A 
ATOM      7  C3  UNL     1     -12.661  28.432   8.354  0.00  0.00    +0.000 A 
ATOM      8  C4  UNL     1     -13.756  27.807   7.745  0.00  0.00    +0.000 A 
ATOM      9  C5  UNL     1     -13.977  27.970   6.377  0.00  0.00    +0.000 A 
ATOM     10  C6  UNL     1     -13.102  28.742   5.613  0.00  0.00    +0.000 A 
ATOM     11  C7  UNL     1     -11.983  29.353   6.202  0.00  0.00    +0.000 A 
BRANCH   6  13
ATOM     12  C1  UNL     1      -9.467  29.313   8.572  0.00  0.00    +0.000 C 
ATOM     13  O1  UNL     1     -10.705  29.907   8.199  0.00  0.00    +0.000 OA
ENDBRANCH   6  13
BRANCH   8  14
ATOM     14  O6  UNL     1     -14.636  27.028   8.494  0.00  0.00    +0.000 OA
ATOM     15  H20 UNL     1     -14.609  27.021   9.507  0.00  0.00    +0.000 HD
ENDBRANCH   8  14
ENDBRANCH   4  11
ENDBRANCH   2   5
ENDBRANCH   1   2
BRANCH   1  16
ATOM     16  C12 UNL     1     -10.422  32.375   0.966  0.00  0.00    +0.000 C 
ATOM     17  O3  UNL     1      -9.431  33.133   0.787  0.00  0.00    +0.000 OA
BRANCH  16  18
ATOM     18  C13 UNL     1     -10.871  31.538  -0.168  0.00  0.00    +0.000 C 
ATOM     19  C14 UNL     1     -12.161  31.277  -0.429  0.00  0.00    +0.000 C 
BRANCH  19  20
ATOM     20  C15 UNL     1     -12.614  30.449  -1.573  0.00  0.00    +0.000 A 
ATOM     21  C16 UNL     1     -11.743  30.040  -2.603  0.00  0.00    +0.000 A 
ATOM     22  C17 UNL     1     -12.212  29.244  -3.667  0.00  0.00    +0.000 A 
ATOM     23  C18 UNL     1     -13.556  28.848  -3.689  0.00  0.00    +0.000 A 
ATOM     24  C19 UNL     1     -14.419  29.236  -2.658  0.00  0.00    +0.000 A 
ATOM     25  C20 UNL     1     -13.951  30.025  -1.606  0.00  0.00    +0.000 A 
BRANCH  23  26
ATOM     26  O4  UNL     1     -14.025  28.063  -4.740  0.00  0.00    +0.000 OA
ATOM     27  H16 UNL     1     -14.022  27.049  -4.689  0.00  0.00    +0.000 HD
ENDBRANCH  23  26
BRANCH  22  28
ATOM     28  O5  UNL     1     -11.376  28.824  -4.714  0.00  0.00    +0.000 OA
ATOM     29  C21 UNL     1      -9.965  29.013  -4.746  0.00  0.00    +0.000 C 
ENDBRANCH  22  28
ENDBRANCH  19  20
ENDBRANCH  16  18
ENDBRANCH   1  16
TORSDOF 10
ENDMDL
MODEL 6
REMARK VINA RESULT:      -1.8      2.479      8.936
REMARK  Name = .\curcumin.pdb
REMARK  12 active torsions:
REMARK  status: ('A' for Active; 'I' for Inactive)
REMARK    1  A    between atoms: C1_1  and  O1_2
REMARK    2  A    between atoms: O1_2  and  C2_3
REMARK    3  A    between atoms: C4_5  and  O6_27
REMARK    4  A    between atoms: C7_8  and  C8_9
REMARK    5  A    between atoms: C9_10  and  C10_11
REMARK    6  A    between atoms: C10_11  and  C11_13
REMARK    7  A    between atoms: C11_13  and  C12_14
REMARK    8  A    between atoms: C12_14  and  C13_16
REMARK    9  A    between atoms: C14_17  and  C15_18
REMARK   10  A    between atoms: C17_20  and  O5_25
REMARK   11  A    between atoms: C18_21  and  O4_24
REMARK   12  A    between atoms: O5_25  and  C21_26
REMARK                            x       y       z     vdW  Elec       q    Type
REMARK                         _______ _______ _______ _____ _____    ______ ____
ROOT
ATOM      1  C11 UNL     1     -10.663  32.439   2.800  0.00  0.00    +0.000 C 
ENDROOT
BRANCH   1   2
ATOM      2  C10 UNL     1     -10.324  31.192   3.568  0.00  0.00    +0.000 C 
ATOM      3  O2  UNL     1      -9.131  30.785   3.589  0.00  0.00    +0.000 OA
BRANCH   2   5
ATOM      4  C8  UNL     1     -11.092  29.567   5.256  0.00  0.00    +0.000 C 
ATOM      5  C9  UNL     1     -11.376  30.480   4.319  0.00  0.00    +0.000 C 
BRANCH   4  11
ATOM      6  C2  UNL     1     -12.929  27.832   5.501  0.00  0.00    +0.000 A 
ATOM      7  C3  UNL     1     -13.915  27.226   6.307  0.00  0.00    +0.000 A 
ATOM      8  C4  UNL     1     -14.091  27.625   7.638  0.00  0.00    +0.000 A 
ATOM      9  C5  UNL     1     -13.281  28.627   8.175  0.00  0.00    +0.000 A 
ATOM     10  C6  UNL     1     -12.308  29.241   7.386  0.00  0.00    +0.000 A 
ATOM     11  C7  UNL     1     -12.138  28.873   6.042  0.00  0.00    +0.000 A 
BRANCH   6  13
ATOM     12  C1  UNL     1     -13.521  27.725   3.067  0.00  0.00    +0.000 C 
ATOM     13  O1  UNL     1     -12.697  27.403   4.183  0.00  0.00    +0.000 OA
ENDBRANCH   6  13
BRANCH   8  14
ATOM     14  O6  UNL     1     -15.062  27.025   8.437  0.00  0.00    +0.000 OA
ATOM     15  H20 UNL     1     -14.991  27.023   9.448  0.00  0.00    +0.000 HD
ENDBRANCH   8  14
ENDBRANCH   4  11
ENDBRANCH   2   5
ENDBRANCH   1   2
BRANCH   1  16
ATOM     16  C12 UNL     1     -10.415  32.289   1.317  0.00  0.00    +0.000 C 
ATOM     17  O3  UNL     1      -9.503  32.958   0.759  0.00  0.00    +0.000 OA
BRANCH  16  18
ATOM     18  C13 UNL     1     -11.216  31.371   0.478  0.00  0.00    +0.000 C 
ATOM     19  C14 UNL     1     -11.779  31.735  -0.685  0.00  0.00    +0.000 C 
BRANCH  19  20
ATOM     20  C15 UNL     1     -12.572  30.813  -1.534  0.00  0.00    +0.000 A 
ATOM     21  C16 UNL     1     -11.971  29.879  -2.403  0.00  0.00    +0.000 A 
ATOM     22  C17 UNL     1     -12.762  29.014  -3.185  0.00  0.00    +0.000 A 
ATOM     23  C18 UNL     1     -14.159  29.079  -3.084  0.00  0.00    +0.000 A 
ATOM     24  C19 UNL     1     -14.758  29.992  -2.209  0.00  0.00    +0.000 A 
ATOM     25  C20 UNL     1     -13.971  30.847  -1.435  0.00  0.00    +0.000 A 
BRANCH  23  26
ATOM     26  O4  UNL     1     -14.946  28.227  -3.857  0.00  0.00    +0.000 OA
ATOM     27  H16 UNL     1     -15.071  28.376  -4.852  0.00  0.00    +0.000 HD
ENDBRANCH  23  26
BRANCH  22  28
ATOM     28  O5  UNL     1     -12.200  28.077  -4.067  0.00  0.00    +0.000 OA
ATOM     29  C21 UNL     1     -11.211  27.119  -3.704  0.00  0.00    +0.000 C 
ENDBRANCH  22  28
ENDBRANCH  19  20
ENDBRANCH  16  18
ENDBRANCH   1  16
TORSDOF 10
ENDMDL
