MODEL 1
REMARK VINA RESULT:      -5.3      0.000      0.000
REMARK  Name = .\curcumin.pdb
REMARK  12 active torsions:
REMARK  status: ('A' for Active; 'I' for Inactive)
REMARK    1  A    between atoms: C1_1  and  O1_2
REMARK    2  A    between atoms: O1_2  and  C2_3
REMARK    3  A    between atoms: C4_5  and  O6_27
REMARK    4  A    between atoms: C7_8  and  C8_9
REMARK    5  A    between atoms: C9_10  and  C10_11
REMARK    6  A    between atoms: C10_11  and  C11_13
REMARK    7  A    between atoms: C11_13  and  C12_14
REMARK    8  A    between atoms: C12_14  and  C13_16
REMARK    9  A    between atoms: C14_17  and  C15_18
REMARK   10  A    between atoms: C17_20  and  O5_25
REMARK   11  A    between atoms: C18_21  and  O4_24
REMARK   12  A    between atoms: O5_25  and  C21_26
REMARK                            x       y       z     vdW  Elec       q    Type
REMARK                         _______ _______ _______ _____ _____    ______ ____
ROOT
ATOM      1  C11 UNL     1     -12.659  58.357  36.956  0.00  0.00    +0.000 C 
ENDROOT
BRANCH   1   2
ATOM      2  C10 UNL     1     -12.481  59.818  37.265  0.00  0.00    +0.000 C 
ATOM      3  O2  UNL     1     -11.582  60.470  36.670  0.00  0.00    +0.000 OA
BRANCH   2   5
ATOM      4  C8  UNL     1     -14.041  61.609  37.929  0.00  0.00    +0.000 C 
ATOM      5  C9  UNL     1     -13.382  60.482  38.227  0.00  0.00    +0.000 C 
BRANCH   4  11
ATOM      6  C2  UNL     1     -14.671  63.487  39.517  0.00  0.00    +0.000 A 
ATOM      7  C3  UNL     1     -15.606  64.045  40.413  0.00  0.00    +0.000 A 
ATOM      8  C4  UNL     1     -16.837  63.417  40.640  0.00  0.00    +0.000 A 
ATOM      9  C5  UNL     1     -17.145  62.231  39.972  0.00  0.00    +0.000 A 
ATOM     10  C6  UNL     1     -16.225  61.663  39.091  0.00  0.00    +0.000 A 
ATOM     11  C7  UNL     1     -14.976  62.265  38.872  0.00  0.00    +0.000 A 
BRANCH   6  13
ATOM     12  C1  UNL     1     -12.329  64.168  40.098  0.00  0.00    +0.000 C 
ATOM     13  O1  UNL     1     -13.457  64.134  39.230  0.00  0.00    +0.000 OA
ENDBRANCH   6  13
BRANCH   8  14
ATOM     14  O6  UNL     1     -17.763  63.969  41.522  0.00  0.00    +0.000 OA
ATOM     15  H20 UNL     1     -18.384  63.387  42.073  0.00  0.00    +0.000 HD
ENDBRANCH   8  14
ENDBRANCH   4  11
ENDBRANCH   2   5
ENDBRANCH   1   2
BRANCH   1  16
ATOM     16  C12 UNL     1     -14.106  57.926  37.018  0.00  0.00    +0.000 C 
ATOM     17  O3  UNL     1     -14.481  57.101  37.894  0.00  0.00    +0.000 OA
BRANCH  16  18
ATOM     18  C13 UNL     1     -15.118  58.443  36.072  0.00  0.00    +0.000 C 
ATOM     19  C14 UNL     1     -16.266  59.020  36.461  0.00  0.00    +0.000 C 
BRANCH  19  20
ATOM     20  C15 UNL     1     -17.277  59.551  35.514  0.00  0.00    +0.000 A 
ATOM     21  C16 UNL     1     -18.135  58.711  34.774  0.00  0.00    +0.000 A 
ATOM     22  C17 UNL     1     -19.090  59.257  33.893  0.00  0.00    +0.000 A 
ATOM     23  C18 UNL     1     -19.190  60.649  33.764  0.00  0.00    +0.000 A 
ATOM     24  C19 UNL     1     -18.353  61.486  34.511  0.00  0.00    +0.000 A 
ATOM     25  C20 UNL     1     -17.408  60.941  35.383  0.00  0.00    +0.000 A 
BRANCH  23  26
ATOM     26  O4  UNL     1     -20.131  61.195  32.893  0.00  0.00    +0.000 OA
ATOM     27  H16 UNL     1     -19.863  61.842  32.159  0.00  0.00    +0.000 HD
ENDBRANCH  23  26
BRANCH  22  28
ATOM     28  O5  UNL     1     -19.956  58.453  33.135  0.00  0.00    +0.000 OA
ATOM     29  C21 UNL     1     -20.283  57.103  33.446  0.00  0.00    +0.000 C 
ENDBRANCH  22  28
ENDBRANCH  19  20
ENDBRANCH  16  18
ENDBRANCH   1  16
TORSDOF 10
ENDMDL
MODEL 2
REMARK VINA RESULT:      -5.2      1.458      2.199
REMARK  Name = .\curcumin.pdb
REMARK  12 active torsions:
REMARK  status: ('A' for Active; 'I' for Inactive)
REMARK    1  A    between atoms: C1_1  and  O1_2
REMARK    2  A    between atoms: O1_2  and  C2_3
REMARK    3  A    between atoms: C4_5  and  O6_27
REMARK    4  A    between atoms: C7_8  and  C8_9
REMARK    5  A    between atoms: C9_10  and  C10_11
REMARK    6  A    between atoms: C10_11  and  C11_13
REMARK    7  A    between atoms: C11_13  and  C12_14
REMARK    8  A    between atoms: C12_14  and  C13_16
REMARK    9  A    between atoms: C14_17  and  C15_18
REMARK   10  A    between atoms: C17_20  and  O5_25
REMARK   11  A    between atoms: C18_21  and  O4_24
REMARK   12  A    between atoms: O5_25  and  C21_26
REMARK                            x       y       z     vdW  Elec       q    Type
REMARK                         _______ _______ _______ _____ _____    ______ ____
ROOT
ATOM      1  C11 UNL     1     -12.659  60.039  36.107  0.00  0.00    +0.000 C 
ENDROOT
BRANCH   1   2
ATOM      2  C10 UNL     1     -12.595  60.784  37.412  0.00  0.00    +0.000 C 
ATOM      3  O2  UNL     1     -11.525  61.363  37.740  0.00  0.00    +0.000 OA
BRANCH   2   5
ATOM      4  C8  UNL     1     -14.698  61.841  38.149  0.00  0.00    +0.000 C 
ATOM      5  C9  UNL     1     -13.790  60.864  38.274  0.00  0.00    +0.000 C 
BRANCH   4  11
ATOM      6  C2  UNL     1     -16.029  62.778  40.097  0.00  0.00    +0.000 A 
ATOM      7  C3  UNL     1     -17.220  62.781  40.852  0.00  0.00    +0.000 A 
ATOM      8  C4  UNL     1     -18.295  61.960  40.490  0.00  0.00    +0.000 A 
ATOM      9  C5  UNL     1     -18.192  61.135  39.368  0.00  0.00    +0.000 A 
ATOM     10  C6  UNL     1     -17.016  61.116  38.618  0.00  0.00    +0.000 A 
ATOM     11  C7  UNL     1     -15.919  61.911  38.984  0.00  0.00    +0.000 A 
BRANCH   6  13
ATOM     12  C1  UNL     1     -14.149  63.535  41.573  0.00  0.00    +0.000 C 
ATOM     13  O1  UNL     1     -14.963  63.639  40.409  0.00  0.00    +0.000 OA
ENDBRANCH   6  13
BRANCH   8  14
ATOM     14  O6  UNL     1     -19.474  61.965  41.233  0.00  0.00    +0.000 OA
ATOM     15  H20 UNL     1     -20.286  61.432  40.943  0.00  0.00    +0.000 HD
ENDBRANCH   8  14
ENDBRANCH   4  11
ENDBRANCH   2   5
ENDBRANCH   1   2
BRANCH   1  16
ATOM     16  C12 UNL     1     -13.526  58.804  36.189  0.00  0.00    +0.000 C 
ATOM     17  O3  UNL     1     -13.002  57.680  36.412  0.00  0.00    +0.000 OA
BRANCH  16  18
ATOM     18  C13 UNL     1     -14.993  58.864  36.015  0.00  0.00    +0.000 C 
ATOM     19  C14 UNL     1     -15.614  59.819  35.304  0.00  0.00    +0.000 C 
BRANCH  19  20
ATOM     20  C15 UNL     1     -17.085  59.875  35.117  0.00  0.00    +0.000 A 
ATOM     21  C16 UNL     1     -17.765  61.075  34.823  0.00  0.00    +0.000 A 
ATOM     22  C17 UNL     1     -19.162  61.082  34.643  0.00  0.00    +0.000 A 
ATOM     23  C18 UNL     1     -19.875  59.880  34.746  0.00  0.00    +0.000 A 
ATOM     24  C19 UNL     1     -19.201  58.684  35.019  0.00  0.00    +0.000 A 
ATOM     25  C20 UNL     1     -17.816  58.681  35.197  0.00  0.00    +0.000 A 
BRANCH  23  26
ATOM     26  O4  UNL     1     -21.258  59.882  34.570  0.00  0.00    +0.000 OA
ATOM     27  H16 UNL     1     -21.891  60.054  35.344  0.00  0.00    +0.000 HD
ENDBRANCH  23  26
BRANCH  22  28
ATOM     28  O5  UNL     1     -19.875  62.257  34.356  0.00  0.00    +0.000 OA
ATOM     29  C21 UNL     1     -19.962  62.854  33.066  0.00  0.00    +0.000 C 
ENDBRANCH  22  28
ENDBRANCH  19  20
ENDBRANCH  16  18
ENDBRANCH   1  16
TORSDOF 10
ENDMDL
MODEL 3
REMARK VINA RESULT:      -4.7      1.876      6.113
REMARK  Name = .\curcumin.pdb
REMARK  12 active torsions:
REMARK  status: ('A' for Active; 'I' for Inactive)
REMARK    1  A    between atoms: C1_1  and  O1_2
REMARK    2  A    between atoms: O1_2  and  C2_3
REMARK    3  A    between atoms: C4_5  and  O6_27
REMARK    4  A    between atoms: C7_8  and  C8_9
REMARK    5  A    between atoms: C9_10  and  C10_11
REMARK    6  A    between atoms: C10_11  and  C11_13
REMARK    7  A    between atoms: C11_13  and  C12_14
REMARK    8  A    between atoms: C12_14  and  C13_16
REMARK    9  A    between atoms: C14_17  and  C15_18
REMARK   10  A    between atoms: C17_20  and  O5_25
REMARK   11  A    between atoms: C18_21  and  O4_24
REMARK   12  A    between atoms: O5_25  and  C21_26
REMARK                            x       y       z     vdW  Elec       q    Type
REMARK                         _______ _______ _______ _____ _____    ______ ____
ROOT
ATOM      1  C11 UNL     1     -12.300  59.497  37.449  0.00  0.00    +0.000 C 
ENDROOT
BRANCH   1   2
ATOM      2  C10 UNL     1     -12.890  59.708  36.083  0.00  0.00    +0.000 C 
ATOM      3  O2  UNL     1     -12.275  60.427  35.250  0.00  0.00    +0.000 OA
BRANCH   2   5
ATOM      4  C8  UNL     1     -15.349  59.614  35.921  0.00  0.00    +0.000 C 
ATOM      5  C9  UNL     1     -14.155  59.043  35.715  0.00  0.00    +0.000 C 
BRANCH   4  11
ATOM      6  C2  UNL     1     -17.680  59.695  34.920  0.00  0.00    +0.000 A 
ATOM      7  C3  UNL     1     -18.870  59.018  34.580  0.00  0.00    +0.000 A 
ATOM      8  C4  UNL     1     -18.995  57.641  34.805  0.00  0.00    +0.000 A 
ATOM      9  C5  UNL     1     -17.933  56.930  35.366  0.00  0.00    +0.000 A 
ATOM     10  C6  UNL     1     -16.755  57.589  35.717  0.00  0.00    +0.000 A 
ATOM     11  C7  UNL     1     -16.623  58.973  35.523  0.00  0.00    +0.000 A 
BRANCH   6  13
ATOM     12  C1  UNL     1     -18.557  61.944  34.245  0.00  0.00    +0.000 C 
ATOM     13  O1  UNL     1     -17.513  61.062  34.646  0.00  0.00    +0.000 OA
ENDBRANCH   6  13
BRANCH   8  14
ATOM     14  O6  UNL     1     -20.168  56.970  34.466  0.00  0.00    +0.000 OA
ATOM     15  H20 UNL     1     -20.768  56.559  35.172  0.00  0.00    +0.000 HD
ENDBRANCH   8  14
ENDBRANCH   4  11
ENDBRANCH   2   5
ENDBRANCH   1   2
BRANCH   1  16
ATOM     16  C12 UNL     1     -12.459  60.707  38.340  0.00  0.00    +0.000 C 
ATOM     17  O3  UNL     1     -11.523  61.545  38.438  0.00  0.00    +0.000 OA
BRANCH  16  18
ATOM     18  C13 UNL     1     -13.694  60.951  39.117  0.00  0.00    +0.000 C 
ATOM     19  C14 UNL     1     -14.719  61.688  38.663  0.00  0.00    +0.000 C 
BRANCH  19  20
ATOM     20  C15 UNL     1     -15.963  61.924  39.435  0.00  0.00    +0.000 A 
ATOM     21  C16 UNL     1     -17.182  61.289  39.118  0.00  0.00    +0.000 A 
ATOM     22  C17 UNL     1     -18.339  61.534  39.885  0.00  0.00    +0.000 A 
ATOM     23  C18 UNL     1     -18.268  62.408  40.978  0.00  0.00    +0.000 A 
ATOM     24  C19 UNL     1     -17.056  63.025  41.306  0.00  0.00    +0.000 A 
ATOM     25  C20 UNL     1     -15.911  62.781  40.545  0.00  0.00    +0.000 A 
BRANCH  23  26
ATOM     26  O4  UNL     1     -19.410  62.654  41.738  0.00  0.00    +0.000 OA
ATOM     27  H16 UNL     1     -20.334  62.667  41.320  0.00  0.00    +0.000 HD
ENDBRANCH  23  26
BRANCH  22  28
ATOM     28  O5  UNL     1     -19.571  60.926  39.596  0.00  0.00    +0.000 OA
ATOM     29  C21 UNL     1     -19.814  60.088  38.471  0.00  0.00    +0.000 C 
ENDBRANCH  22  28
ENDBRANCH  19  20
ENDBRANCH  16  18
ENDBRANCH   1  16
TORSDOF 10
ENDMDL
MODEL 4
REMARK VINA RESULT:      -4.7      2.383      5.273
REMARK  Name = .\curcumin.pdb
REMARK  12 active torsions:
REMARK  status: ('A' for Active; 'I' for Inactive)
REMARK    1  A    between atoms: C1_1  and  O1_2
REMARK    2  A    between atoms: O1_2  and  C2_3
REMARK    3  A    between atoms: C4_5  and  O6_27
REMARK    4  A    between atoms: C7_8  and  C8_9
REMARK    5  A    between atoms: C9_10  and  C10_11
REMARK    6  A    between atoms: C10_11  and  C11_13
REMARK    7  A    between atoms: C11_13  and  C12_14
REMARK    8  A    between atoms: C12_14  and  C13_16
REMARK    9  A    between atoms: C14_17  and  C15_18
REMARK   10  A    between atoms: C17_20  and  O5_25
REMARK   11  A    between atoms: C18_21  and  O4_24
REMARK   12  A    between atoms: O5_25  and  C21_26
REMARK                            x       y       z     vdW  Elec       q    Type
REMARK                         _______ _______ _______ _____ _____    ______ ____
ROOT
ATOM      1  C11 UNL     1     -19.185  60.426  40.352  0.00  0.00    +0.000 C 
ENDROOT
BRANCH   1   2
ATOM      2  C10 UNL     1     -18.239  61.548  40.029  0.00  0.00    +0.000 C 
ATOM      3  O2  UNL     1     -18.301  62.618  40.691  0.00  0.00    +0.000 OA
BRANCH   2   5
ATOM      4  C8  UNL     1     -16.573  60.218  38.787  0.00  0.00    +0.000 C 
ATOM      5  C9  UNL     1     -17.224  61.374  38.971  0.00  0.00    +0.000 C 
BRANCH   4  11
ATOM      6  C2  UNL     1     -14.300  59.465  37.945  0.00  0.00    +0.000 A 
ATOM      7  C3  UNL     1     -13.402  59.318  36.868  0.00  0.00    +0.000 A 
ATOM      8  C4  UNL     1     -13.779  59.688  35.571  0.00  0.00    +0.000 A 
ATOM      9  C5  UNL     1     -15.056  60.201  35.339  0.00  0.00    +0.000 A 
ATOM     10  C6  UNL     1     -15.951  60.360  36.397  0.00  0.00    +0.000 A 
ATOM     11  C7  UNL     1     -15.579  60.021  37.708  0.00  0.00    +0.000 A 
BRANCH   6  13
ATOM     12  C1  UNL     1     -13.894  57.684  39.663  0.00  0.00    +0.000 C 
ATOM     13  O1  UNL     1     -13.962  59.043  39.242  0.00  0.00    +0.000 OA
ENDBRANCH   6  13
BRANCH   8  14
ATOM     14  O6  UNL     1     -12.895  59.541  34.505  0.00  0.00    +0.000 OA
ATOM     15  H20 UNL     1     -11.903  59.398  34.654  0.00  0.00    +0.000 HD
ENDBRANCH   8  14
ENDBRANCH   4  11
ENDBRANCH   2   5
ENDBRANCH   1   2
BRANCH   1  16
ATOM     16  C12 UNL     1     -20.304  60.306  39.343  0.00  0.00    +0.000 C 
ATOM     17  O3  UNL     1     -21.421  60.843  39.573  0.00  0.00    +0.000 OA
BRANCH  16  18
ATOM     18  C13 UNL     1     -20.137  59.567  38.073  0.00  0.00    +0.000 C 
ATOM     19  C14 UNL     1     -19.813  60.159  36.912  0.00  0.00    +0.000 C 
BRANCH  19  20
ATOM     20  C15 UNL     1     -19.632  59.419  35.639  0.00  0.00    +0.000 A 
ATOM     21  C16 UNL     1     -20.180  59.867  34.419  0.00  0.00    +0.000 A 
ATOM     22  C17 UNL     1     -19.975  59.140  33.230  0.00  0.00    +0.000 A 
ATOM     23  C18 UNL     1     -19.210  57.966  33.265  0.00  0.00    +0.000 A 
ATOM     24  C19 UNL     1     -18.650  57.528  34.470  0.00  0.00    +0.000 A 
ATOM     25  C20 UNL     1     -18.854  58.252  35.646  0.00  0.00    +0.000 A 
BRANCH  23  26
ATOM     26  O4  UNL     1     -19.007  57.241  32.092  0.00  0.00    +0.000 OA
ATOM     27  H16 UNL     1     -19.623  56.481  31.823  0.00  0.00    +0.000 HD
ENDBRANCH  23  26
BRANCH  22  28
ATOM     28  O5  UNL     1     -20.510  59.551  31.998  0.00  0.00    +0.000 OA
ATOM     29  C21 UNL     1     -21.387  60.660  31.829  0.00  0.00    +0.000 C 
ENDBRANCH  22  28
ENDBRANCH  19  20
ENDBRANCH  16  18
ENDBRANCH   1  16
TORSDOF 10
ENDMDL
MODEL 5
REMARK VINA RESULT:      -4.7      1.920      6.376
REMARK  Name = .\curcumin.pdb
REMARK  12 active torsions:
REMARK  status: ('A' for Active; 'I' for Inactive)
REMARK    1  A    between atoms: C1_1  and  O1_2
REMARK    2  A    between atoms: O1_2  and  C2_3
REMARK    3  A    between atoms: C4_5  and  O6_27
REMARK    4  A    between atoms: C7_8  and  C8_9
REMARK    5  A    between atoms: C9_10  and  C10_11
REMARK    6  A    between atoms: C10_11  and  C11_13
REMARK    7  A    between atoms: C11_13  and  C12_14
REMARK    8  A    between atoms: C12_14  and  C13_16
REMARK    9  A    between atoms: C14_17  and  C15_18
REMARK   10  A    between atoms: C17_20  and  O5_25
REMARK   11  A    between atoms: C18_21  and  O4_24
REMARK   12  A    between atoms: O5_25  and  C21_26
REMARK                            x       y       z     vdW  Elec       q    Type
REMARK                         _______ _______ _______ _____ _____    ______ ____
ROOT
ATOM      1  C11 UNL     1     -13.433  59.725  37.209  0.00  0.00    +0.000 C 
ENDROOT
BRANCH   1   2
ATOM      2  C10 UNL     1     -13.799  59.722  35.751  0.00  0.00    +0.000 C 
ATOM      3  O2  UNL     1     -12.964  59.301  34.906  0.00  0.00    +0.000 OA
BRANCH   2   5
ATOM      4  C8  UNL     1     -16.253  59.500  35.644  0.00  0.00    +0.000 C 
ATOM      5  C9  UNL     1     -15.140  60.172  35.326  0.00  0.00    +0.000 C 
BRANCH   4  11
ATOM      6  C2  UNL     1     -18.759  59.157  35.422  0.00  0.00    +0.000 A 
ATOM      7  C3  UNL     1     -20.013  59.659  35.017  0.00  0.00    +0.000 A 
ATOM      8  C4  UNL     1     -20.124  60.950  34.484  0.00  0.00    +0.000 A 
ATOM      9  C5  UNL     1     -18.988  61.750  34.358  0.00  0.00    +0.000 A 
ATOM     10  C6  UNL     1     -17.740  61.262  34.746  0.00  0.00    +0.000 A 
ATOM     11  C7  UNL     1     -17.606  59.960  35.255  0.00  0.00    +0.000 A 
BRANCH   6  13
ATOM     12  C1  UNL     1     -18.450  56.672  35.299  0.00  0.00    +0.000 C 
ATOM     13  O1  UNL     1     -18.636  57.889  36.015  0.00  0.00    +0.000 OA
ENDBRANCH   6  13
BRANCH   8  14
ATOM     14  O6  UNL     1     -21.363  61.449  34.087  0.00  0.00    +0.000 OA
ATOM     15  H20 UNL     1     -21.759  62.282  34.505  0.00  0.00    +0.000 HD
ENDBRANCH   8  14
ENDBRANCH   4  11
ENDBRANCH   2   5
ENDBRANCH   1   2
BRANCH   1  16
ATOM     16  C12 UNL     1     -13.388  61.119  37.790  0.00  0.00    +0.000 C 
ATOM     17  O3  UNL     1     -12.415  61.878  37.532  0.00  0.00    +0.000 OA
BRANCH  16  18
ATOM     18  C13 UNL     1     -14.460  61.637  38.667  0.00  0.00    +0.000 C 
ATOM     19  C14 UNL     1     -15.688  61.100  38.728  0.00  0.00    +0.000 C 
BRANCH  19  20
ATOM     20  C15 UNL     1     -16.762  61.611  39.616  0.00  0.00    +0.000 A 
ATOM     21  C16 UNL     1     -18.013  60.972  39.734  0.00  0.00    +0.000 A 
ATOM     22  C17 UNL     1     -19.002  61.484  40.597  0.00  0.00    +0.000 A 
ATOM     23  C18 UNL     1     -18.728  62.633  41.352  0.00  0.00    +0.000 A 
ATOM     24  C19 UNL     1     -17.481  63.259  41.251  0.00  0.00    +0.000 A 
ATOM     25  C20 UNL     1     -16.504  62.748  40.395  0.00  0.00    +0.000 A 
BRANCH  23  26
ATOM     26  O4  UNL     1     -19.704  63.144  42.206  0.00  0.00    +0.000 OA
ATOM     27  H16 UNL     1     -20.433  62.555  42.593  0.00  0.00    +0.000 HD
ENDBRANCH  23  26
BRANCH  22  28
ATOM     28  O5  UNL     1     -20.262  60.879  40.736  0.00  0.00    +0.000 OA
ATOM     29  C21 UNL     1     -20.531  59.756  41.569  0.00  0.00    +0.000 C 
ENDBRANCH  22  28
ENDBRANCH  19  20
ENDBRANCH  16  18
ENDBRANCH   1  16
TORSDOF 10
ENDMDL
MODEL 6
REMARK VINA RESULT:      -4.4      2.388      7.312
REMARK  Name = .\curcumin.pdb
REMARK  12 active torsions:
REMARK  status: ('A' for Active; 'I' for Inactive)
REMARK    1  A    between atoms: C1_1  and  O1_2
REMARK    2  A    between atoms: O1_2  and  C2_3
REMARK    3  A    between atoms: C4_5  and  O6_27
REMARK    4  A    between atoms: C7_8  and  C8_9
REMARK    5  A    between atoms: C9_10  and  C10_11
REMARK    6  A    between atoms: C10_11  and  C11_13
REMARK    7  A    between atoms: C11_13  and  C12_14
REMARK    8  A    between atoms: C12_14  and  C13_16
REMARK    9  A    between atoms: C14_17  and  C15_18
REMARK   10  A    between atoms: C17_20  and  O5_25
REMARK   11  A    between atoms: C18_21  and  O4_24
REMARK   12  A    between atoms: O5_25  and  C21_26
REMARK                            x       y       z     vdW  Elec       q    Type
REMARK                         _______ _______ _______ _____ _____    ______ ____
ROOT
ATOM      1  C11 UNL     1     -19.479  61.164  40.421  0.00  0.00    +0.000 C 
ENDROOT
BRANCH   1   2
ATOM      2  C10 UNL     1     -20.253  59.952  39.982  0.00  0.00    +0.000 C 
ATOM      3  O2  UNL     1     -21.094  59.439  40.768  0.00  0.00    +0.000 OA
BRANCH   2   5
ATOM      4  C8  UNL     1     -20.045  60.172  37.534  0.00  0.00    +0.000 C 
ATOM      5  C9  UNL     1     -20.052  59.400  38.628  0.00  0.00    +0.000 C 
BRANCH   4  11
ATOM      6  C2  UNL     1     -20.076  60.384  35.005  0.00  0.00    +0.000 A 
ATOM      7  C3  UNL     1     -19.837  59.800  33.744  0.00  0.00    +0.000 A 
ATOM      8  C4  UNL     1     -19.311  58.505  33.646  0.00  0.00    +0.000 A 
ATOM      9  C5  UNL     1     -19.015  57.787  34.806  0.00  0.00    +0.000 A 
ATOM     10  C6  UNL     1     -19.255  58.349  36.060  0.00  0.00    +0.000 A 
ATOM     11  C7  UNL     1     -19.808  59.634  36.175  0.00  0.00    +0.000 A 
BRANCH   6  13
ATOM     12  C1  UNL     1     -21.304  62.387  34.131  0.00  0.00    +0.000 C 
ATOM     13  O1  UNL     1     -20.546  61.703  35.123  0.00  0.00    +0.000 OA
ENDBRANCH   6  13
BRANCH   8  14
ATOM     14  O6  UNL     1     -19.070  57.928  32.401  0.00  0.00    +0.000 OA
ATOM     15  H20 UNL     1     -18.149  57.599  32.138  0.00  0.00    +0.000 HD
ENDBRANCH   8  14
ENDBRANCH   4  11
ENDBRANCH   2   5
ENDBRANCH   1   2
BRANCH   1  16
ATOM     16  C12 UNL     1     -18.050  60.835  40.787  0.00  0.00    +0.000 C 
ATOM     17  O3  UNL     1     -17.678  60.891  41.990  0.00  0.00    +0.000 OA
BRANCH  16  18
ATOM     18  C13 UNL     1     -17.052  60.441  39.769  0.00  0.00    +0.000 C 
ATOM     19  C14 UNL     1     -16.795  61.164  38.668  0.00  0.00    +0.000 C 
BRANCH  19  20
ATOM     20  C15 UNL     1     -15.785  60.778  37.652  0.00  0.00    +0.000 A 
ATOM     21  C16 UNL     1     -14.427  60.576  37.973  0.00  0.00    +0.000 A 
ATOM     22  C17 UNL     1     -13.503  60.200  36.979  0.00  0.00    +0.000 A 
ATOM     23  C18 UNL     1     -13.946  60.014  35.663  0.00  0.00    +0.000 A 
ATOM     24  C19 UNL     1     -15.296  60.195  35.344  0.00  0.00    +0.000 A 
ATOM     25  C20 UNL     1     -16.210  60.568  36.332  0.00  0.00    +0.000 A 
BRANCH  23  26
ATOM     26  O4  UNL     1     -13.035  59.643  34.675  0.00  0.00    +0.000 OA
ATOM     27  H16 UNL     1     -12.748  58.678  34.552  0.00  0.00    +0.000 HD
ENDBRANCH  23  26
BRANCH  22  28
ATOM     28  O5  UNL     1     -12.142  59.997  37.260  0.00  0.00    +0.000 OA
ATOM     29  C21 UNL     1     -11.604  58.810  37.835  0.00  0.00    +0.000 C 
ENDBRANCH  22  28
ENDBRANCH  19  20
ENDBRANCH  16  18
ENDBRANCH   1  16
TORSDOF 10
ENDMDL
MODEL 7
REMARK VINA RESULT:      -4.4      2.167      4.678
REMARK  Name = .\curcumin.pdb
REMARK  12 active torsions:
REMARK  status: ('A' for Active; 'I' for Inactive)
REMARK    1  A    between atoms: C1_1  and  O1_2
REMARK    2  A    between atoms: O1_2  and  C2_3
REMARK    3  A    between atoms: C4_5  and  O6_27
REMARK    4  A    between atoms: C7_8  and  C8_9
REMARK    5  A    between atoms: C9_10  and  C10_11
REMARK    6  A    between atoms: C10_11  and  C11_13
REMARK    7  A    between atoms: C11_13  and  C12_14
REMARK    8  A    between atoms: C12_14  and  C13_16
REMARK    9  A    between atoms: C14_17  and  C15_18
REMARK   10  A    between atoms: C17_20  and  O5_25
REMARK   11  A    between atoms: C18_21  and  O4_24
REMARK   12  A    between atoms: O5_25  and  C21_26
REMARK                            x       y       z     vdW  Elec       q    Type
REMARK                         _______ _______ _______ _____ _____    ______ ____
ROOT
ATOM      1  C11 UNL     1     -17.780  59.785  41.017  0.00  0.00    +0.000 C 
ENDROOT
BRANCH   1   2
ATOM      2  C10 UNL     1     -16.319  60.060  41.237  0.00  0.00    +0.000 C 
ATOM      3  O2  UNL     1     -15.828  59.903  42.387  0.00  0.00    +0.000 OA
BRANCH   2   5
ATOM      4  C8  UNL     1     -14.934  59.583  39.252  0.00  0.00    +0.000 C 
ATOM      5  C9  UNL     1     -15.467  60.469  40.103  0.00  0.00    +0.000 C 
BRANCH   4  11
ATOM      6  C2  UNL     1     -13.037  60.903  38.201  0.00  0.00    +0.000 A 
ATOM      7  C3  UNL     1     -12.303  61.246  37.047  0.00  0.00    +0.000 A 
ATOM      8  C4  UNL     1     -12.607  60.663  35.810  0.00  0.00    +0.000 A 
ATOM      9  C5  UNL     1     -13.641  59.730  35.717  0.00  0.00    +0.000 A 
ATOM     10  C6  UNL     1     -14.381  59.389  36.849  0.00  0.00    +0.000 A 
ATOM     11  C7  UNL     1     -14.108  59.984  38.091  0.00  0.00    +0.000 A 
BRANCH   6  13
ATOM     12  C1  UNL     1     -11.523  61.122  40.187  0.00  0.00    +0.000 C 
ATOM     13  O1  UNL     1     -12.708  61.430  39.461  0.00  0.00    +0.000 OA
ENDBRANCH   6  13
BRANCH   8  14
ATOM     14  O6  UNL     1     -11.880  60.999  34.670  0.00  0.00    +0.000 OA
ATOM     15  H20 UNL     1     -12.333  61.143  33.775  0.00  0.00    +0.000 HD
ENDBRANCH   8  14
ENDBRANCH   4  11
ENDBRANCH   2   5
ENDBRANCH   1   2
BRANCH   1  16
ATOM     16  C12 UNL     1     -18.413  60.760  40.051  0.00  0.00    +0.000 C 
ATOM     17  O3  UNL     1     -18.551  61.970  40.377  0.00  0.00    +0.000 OA
BRANCH  16  18
ATOM     18  C13 UNL     1     -18.885  60.342  38.713  0.00  0.00    +0.000 C 
ATOM     19  C14 UNL     1     -18.217  60.604  37.579  0.00  0.00    +0.000 C 
BRANCH  19  20
ATOM     20  C15 UNL     1     -18.682  60.175  36.237  0.00  0.00    +0.000 A 
ATOM     21  C16 UNL     1     -19.083  61.095  35.246  0.00  0.00    +0.000 A 
ATOM     22  C17 UNL     1     -19.509  60.645  33.980  0.00  0.00    +0.000 A 
ATOM     23  C18 UNL     1     -19.520  59.271  33.706  0.00  0.00    +0.000 A 
ATOM     24  C19 UNL     1     -19.106  58.357  34.681  0.00  0.00    +0.000 A 
ATOM     25  C20 UNL     1     -18.684  58.806  35.934  0.00  0.00    +0.000 A 
BRANCH  23  26
ATOM     26  O4  UNL     1     -19.942  58.822  32.456  0.00  0.00    +0.000 OA
ATOM     27  H16 UNL     1     -20.837  59.100  32.066  0.00  0.00    +0.000 HD
ENDBRANCH  23  26
BRANCH  22  28
ATOM     28  O5  UNL     1     -19.922  61.530  32.971  0.00  0.00    +0.000 OA
ATOM     29  C21 UNL     1     -19.947  62.948  33.101  0.00  0.00    +0.000 C 
ENDBRANCH  22  28
ENDBRANCH  19  20
ENDBRANCH  16  18
ENDBRANCH   1  16
TORSDOF 10
ENDMDL
MODEL 8
REMARK VINA RESULT:      -4.2      2.511      7.800
REMARK  Name = .\curcumin.pdb
REMARK  12 active torsions:
REMARK  status: ('A' for Active; 'I' for Inactive)
REMARK    1  A    between atoms: C1_1  and  O1_2
REMARK    2  A    between atoms: O1_2  and  C2_3
REMARK    3  A    between atoms: C4_5  and  O6_27
REMARK    4  A    between atoms: C7_8  and  C8_9
REMARK    5  A    between atoms: C9_10  and  C10_11
REMARK    6  A    between atoms: C10_11  and  C11_13
REMARK    7  A    between atoms: C11_13  and  C12_14
REMARK    8  A    between atoms: C12_14  and  C13_16
REMARK    9  A    between atoms: C14_17  and  C15_18
REMARK   10  A    between atoms: C17_20  and  O5_25
REMARK   11  A    between atoms: C18_21  and  O4_24
REMARK   12  A    between atoms: O5_25  and  C21_26
REMARK                            x       y       z     vdW  Elec       q    Type
REMARK                         _______ _______ _______ _____ _____    ______ ____
ROOT
ATOM      1  C11 UNL     1     -20.186  59.439  39.780  0.00  0.00    +0.000 C 
ENDROOT
BRANCH   1   2
ATOM      2  C10 UNL     1     -20.580  58.868  38.447  0.00  0.00    +0.000 C 
ATOM      3  O2  UNL     1     -20.888  57.649  38.364  0.00  0.00    +0.000 OA
BRANCH   2   5
ATOM      4  C8  UNL     1     -20.144  59.375  36.073  0.00  0.00    +0.000 C 
ATOM      5  C9  UNL     1     -20.642  59.743  37.260  0.00  0.00    +0.000 C 
BRANCH   4  11
ATOM      6  C2  UNL     1     -20.997  59.865  33.733  0.00  0.00    +0.000 A 
ATOM      7  C3  UNL     1     -21.024  60.724  32.615  0.00  0.00    +0.000 A 
ATOM      8  C4  UNL     1     -20.328  61.939  32.634  0.00  0.00    +0.000 A 
ATOM      9  C5  UNL     1     -19.606  62.308  33.770  0.00  0.00    +0.000 A 
ATOM     10  C6  UNL     1     -19.563  61.463  34.879  0.00  0.00    +0.000 A 
ATOM     11  C7  UNL     1     -20.232  60.228  34.866  0.00  0.00    +0.000 A 
BRANCH   6  13
ATOM     12  C1  UNL     1     -23.146  58.592  33.947  0.00  0.00    +0.000 C 
ATOM     13  O1  UNL     1     -21.738  58.671  33.755  0.00  0.00    +0.000 OA
ENDBRANCH   6  13
BRANCH   8  14
ATOM     14  O6  UNL     1     -20.355  62.791  31.532  0.00  0.00    +0.000 OA
ATOM     15  H20 UNL     1     -20.445  62.435  30.588  0.00  0.00    +0.000 HD
ENDBRANCH   8  14
ENDBRANCH   4  11
ENDBRANCH   2   5
ENDBRANCH   1   2
BRANCH   1  16
ATOM     16  C12 UNL     1     -19.134  60.518  39.659  0.00  0.00    +0.000 C 
ATOM     17  O3  UNL     1     -19.335  61.654  40.166  0.00  0.00    +0.000 OA
BRANCH  16  18
ATOM     18  C13 UNL     1     -17.854  60.288  38.954  0.00  0.00    +0.000 C 
ATOM     19  C14 UNL     1     -17.420  61.055  37.942  0.00  0.00    +0.000 C 
BRANCH  19  20
ATOM     20  C15 UNL     1     -16.131  60.833  37.242  0.00  0.00    +0.000 A 
ATOM     21  C16 UNL     1     -14.893  61.224  37.794  0.00  0.00    +0.000 A 
ATOM     22  C17 UNL     1     -13.690  60.985  37.100  0.00  0.00    +0.000 A 
ATOM     23  C18 UNL     1     -13.730  60.342  35.856  0.00  0.00    +0.000 A 
ATOM     24  C19 UNL     1     -14.955  59.936  35.314  0.00  0.00    +0.000 A 
ATOM     25  C20 UNL     1     -16.145  60.174  36.004  0.00  0.00    +0.000 A 
BRANCH  23  26
ATOM     26  O4  UNL     1     -12.543  60.105  35.164  0.00  0.00    +0.000 OA
ATOM     27  H16 UNL     1     -12.346  59.204  34.741  0.00  0.00    +0.000 HD
ENDBRANCH  23  26
BRANCH  22  28
ATOM     28  O5  UNL     1     -12.440  61.366  37.615  0.00  0.00    +0.000 OA
ATOM     29  C21 UNL     1     -11.634  60.553  38.461  0.00  0.00    +0.000 C 
ENDBRANCH  22  28
ENDBRANCH  19  20
ENDBRANCH  16  18
ENDBRANCH   1  16
TORSDOF 10
ENDMDL
MODEL 9
REMARK VINA RESULT:      -4.2      1.624      2.930
REMARK  Name = .\curcumin.pdb
REMARK  12 active torsions:
REMARK  status: ('A' for Active; 'I' for Inactive)
REMARK    1  A    between atoms: C1_1  and  O1_2
REMARK    2  A    between atoms: O1_2  and  C2_3
REMARK    3  A    between atoms: C4_5  and  O6_27
REMARK    4  A    between atoms: C7_8  and  C8_9
REMARK    5  A    between atoms: C9_10  and  C10_11
REMARK    6  A    between atoms: C10_11  and  C11_13
REMARK    7  A    between atoms: C11_13  and  C12_14
REMARK    8  A    between atoms: C12_14  and  C13_16
REMARK    9  A    between atoms: C14_17  and  C15_18
REMARK   10  A    between atoms: C17_20  and  O5_25
REMARK   11  A    between atoms: C18_21  and  O4_24
REMARK   12  A    between atoms: O5_25  and  C21_26
REMARK                            x       y       z     vdW  Elec       q    Type
REMARK                         _______ _______ _______ _____ _____    ______ ____
ROOT
ATOM      1  C11 UNL     1     -13.233  59.189  36.771  0.00  0.00    +0.000 C 
ENDROOT
BRANCH   1   2
ATOM      2  C10 UNL     1     -12.990  59.890  38.078  0.00  0.00    +0.000 C 
ATOM      3  O2  UNL     1     -11.907  59.693  38.692  0.00  0.00    +0.000 OA
BRANCH   2   5
ATOM      4  C8  UNL     1     -15.039  60.419  39.345  0.00  0.00    +0.000 C 
ATOM      5  C9  UNL     1     -13.998  60.829  38.610  0.00  0.00    +0.000 C 
BRANCH   4  11
ATOM      6  C2  UNL     1     -17.236  60.910  40.519  0.00  0.00    +0.000 A 
ATOM      7  C3  UNL     1     -18.143  61.862  41.028  0.00  0.00    +0.000 A 
ATOM      8  C4  UNL     1     -17.850  63.230  40.967  0.00  0.00    +0.000 A 
ATOM      9  C5  UNL     1     -16.647  63.658  40.403  0.00  0.00    +0.000 A 
ATOM     10  C6  UNL     1     -15.745  62.728  39.886  0.00  0.00    +0.000 A 
ATOM     11  C7  UNL     1     -16.036  61.354  39.914  0.00  0.00    +0.000 A 
BRANCH   6  13
ATOM     12  C1  UNL     1     -17.159  58.733  41.759  0.00  0.00    +0.000 C 
ATOM     13  O1  UNL     1     -17.485  59.531  40.626  0.00  0.00    +0.000 OA
ENDBRANCH   6  13
BRANCH   8  14
ATOM     14  O6  UNL     1     -18.744  64.171  41.473  0.00  0.00    +0.000 OA
ATOM     15  H20 UNL     1     -19.389  63.943  42.221  0.00  0.00    +0.000 HD
ENDBRANCH   8  14
ENDBRANCH   4  11
ENDBRANCH   2   5
ENDBRANCH   1   2
BRANCH   1  16
ATOM     16  C12 UNL     1     -14.390  58.218  36.843  0.00  0.00    +0.000 C 
ATOM     17  O3  UNL     1     -14.297  57.178  37.549  0.00  0.00    +0.000 OA
BRANCH  16  18
ATOM     18  C13 UNL     1     -15.650  58.445  36.103  0.00  0.00    +0.000 C 
ATOM     19  C14 UNL     1     -16.206  59.657  35.946  0.00  0.00    +0.000 C 
BRANCH  19  20
ATOM     20  C15 UNL     1     -17.464  59.889  35.194  0.00  0.00    +0.000 A 
ATOM     21  C16 UNL     1     -18.054  61.165  35.082  0.00  0.00    +0.000 A 
ATOM     22  C17 UNL     1     -19.243  61.344  34.349  0.00  0.00    +0.000 A 
ATOM     23  C18 UNL     1     -19.835  60.241  33.717  0.00  0.00    +0.000 A 
ATOM     24  C19 UNL     1     -19.242  58.977  33.811  0.00  0.00    +0.000 A 
ATOM     25  C20 UNL     1     -18.063  58.803  34.538  0.00  0.00    +0.000 A 
BRANCH  23  26
ATOM     26  O4  UNL     1     -21.013  60.412  32.992  0.00  0.00    +0.000 OA
ATOM     27  H16 UNL     1     -21.914  60.485  33.453  0.00  0.00    +0.000 HD
ENDBRANCH  23  26
BRANCH  22  28
ATOM     28  O5  UNL     1     -19.864  62.597  34.221  0.00  0.00    +0.000 OA
ATOM     29  C21 UNL     1     -19.402  63.643  33.372  0.00  0.00    +0.000 C 
ENDBRANCH  22  28
ENDBRANCH  19  20
ENDBRANCH  16  18
ENDBRANCH   1  16
TORSDOF 10
ENDMDL
