MODEL 1
REMARK VINA RESULT:      -5.3      0.000      0.000
REMARK  Name = .\curcumin.pdb
REMARK  12 active torsions:
REMARK  status: ('A' for Active; 'I' for Inactive)
REMARK    1  A    between atoms: C1_1  and  O1_2
REMARK    2  A    between atoms: O1_2  and  C2_3
REMARK    3  A    between atoms: C4_5  and  O6_27
REMARK    4  A    between atoms: C7_8  and  C8_9
REMARK    5  A    between atoms: C9_10  and  C10_11
REMARK    6  A    between atoms: C10_11  and  C11_13
REMARK    7  A    between atoms: C11_13  and  C12_14
REMARK    8  A    between atoms: C12_14  and  C13_16
REMARK    9  A    between atoms: C14_17  and  C15_18
REMARK   10  A    between atoms: C17_20  and  O5_25
REMARK   11  A    between atoms: C18_21  and  O4_24
REMARK   12  A    between atoms: O5_25  and  C21_26
REMARK                            x       y       z     vdW  Elec       q    Type
REMARK                         _______ _______ _______ _____ _____    ______ ____
ROOT
ATOM      1  C11 UNL     1      -8.713  76.539  69.811  0.00  0.00    +0.000 C 
ENDROOT
BRANCH   1   2
ATOM      2  C10 UNL     1      -8.524  77.580  70.879  0.00  0.00    +0.000 C 
ATOM      3  O2  UNL     1      -7.586  78.414  70.769  0.00  0.00    +0.000 OA
BRANCH   2   5
ATOM      4  C8  UNL     1     -10.021  78.789  72.422  0.00  0.00    +0.000 C 
ATOM      5  C9  UNL     1      -9.458  77.642  72.020  0.00  0.00    +0.000 C 
BRANCH   4  11
ATOM      6  C2  UNL     1     -10.582  78.830  74.897  0.00  0.00    +0.000 A 
ATOM      7  C3  UNL     1     -11.562  78.888  75.910  0.00  0.00    +0.000 A 
ATOM      8  C4  UNL     1     -12.919  79.003  75.583  0.00  0.00    +0.000 A 
ATOM      9  C5  UNL     1     -13.307  79.068  74.244  0.00  0.00    +0.000 A 
ATOM     10  C6  UNL     1     -12.349  79.002  73.232  0.00  0.00    +0.000 A 
ATOM     11  C7  UNL     1     -10.988  78.858  73.542  0.00  0.00    +0.000 A 
BRANCH   6  13
ATOM     12  C1  UNL     1      -8.502  77.588  75.542  0.00  0.00    +0.000 C 
ATOM     13  O1  UNL     1      -9.213  78.776  75.206  0.00  0.00    +0.000 OA
ENDBRANCH   6  13
BRANCH   8  14
ATOM     14  O6  UNL     1     -13.887  79.064  76.582  0.00  0.00    +0.000 OA
ATOM     15  H20 UNL     1     -13.661  79.363  77.523  0.00  0.00    +0.000 HD
ENDBRANCH   8  14
ENDBRANCH   4  11
ENDBRANCH   2   5
ENDBRANCH   1   2
BRANCH   1  16
ATOM     16  C12 UNL     1      -9.906  76.826  68.929  0.00  0.00    +0.000 C 
ATOM     17  O3  UNL     1      -9.752  76.976  67.687  0.00  0.00    +0.000 OA
BRANCH  16  18
ATOM     18  C13 UNL     1     -11.275  76.940  69.478  0.00  0.00    +0.000 C 
ATOM     19  C14 UNL     1     -11.818  76.032  70.303  0.00  0.00    +0.000 C 
BRANCH  19  20
ATOM     20  C15 UNL     1     -13.186  76.150  70.865  0.00  0.00    +0.000 A 
ATOM     21  C16 UNL     1     -13.541  75.603  72.115  0.00  0.00    +0.000 A 
ATOM     22  C17 UNL     1     -14.850  75.748  72.617  0.00  0.00    +0.000 A 
ATOM     23  C18 UNL     1     -15.800  76.453  71.866  0.00  0.00    +0.000 A 
ATOM     24  C19 UNL     1     -15.447  77.013  70.633  0.00  0.00    +0.000 A 
ATOM     25  C20 UNL     1     -14.149  76.868  70.140  0.00  0.00    +0.000 A 
BRANCH  23  26
ATOM     26  O4  UNL     1     -17.097  76.597  72.357  0.00  0.00    +0.000 OA
ATOM     27  H16 UNL     1     -17.799  77.130  71.854  0.00  0.00    +0.000 HD
ENDBRANCH  23  26
BRANCH  22  28
ATOM     28  O5  UNL     1     -15.242  75.211  73.854  0.00  0.00    +0.000 OA
ATOM     29  C21 UNL     1     -15.235  75.929  75.084  0.00  0.00    +0.000 C 
ENDBRANCH  22  28
ENDBRANCH  19  20
ENDBRANCH  16  18
ENDBRANCH   1  16
TORSDOF 10
ENDMDL
MODEL 2
REMARK VINA RESULT:      -5.3      0.698      1.821
REMARK  Name = .\curcumin.pdb
REMARK  12 active torsions:
REMARK  status: ('A' for Active; 'I' for Inactive)
REMARK    1  A    between atoms: C1_1  and  O1_2
REMARK    2  A    between atoms: O1_2  and  C2_3
REMARK    3  A    between atoms: C4_5  and  O6_27
REMARK    4  A    between atoms: C7_8  and  C8_9
REMARK    5  A    between atoms: C9_10  and  C10_11
REMARK    6  A    between atoms: C10_11  and  C11_13
REMARK    7  A    between atoms: C11_13  and  C12_14
REMARK    8  A    between atoms: C12_14  and  C13_16
REMARK    9  A    between atoms: C14_17  and  C15_18
REMARK   10  A    between atoms: C17_20  and  O5_25
REMARK   11  A    between atoms: C18_21  and  O4_24
REMARK   12  A    between atoms: O5_25  and  C21_26
REMARK                            x       y       z     vdW  Elec       q    Type
REMARK                         _______ _______ _______ _____ _____    ______ ____
ROOT
ATOM      1  C11 UNL     1      -8.522  76.680  69.736  0.00  0.00    +0.000 C 
ENDROOT
BRANCH   1   2
ATOM      2  C10 UNL     1      -8.433  77.777  70.760  0.00  0.00    +0.000 C 
ATOM      3  O2  UNL     1      -7.603  78.711  70.594  0.00  0.00    +0.000 OA
BRANCH   2   5
ATOM      4  C8  UNL     1      -9.990  78.874  72.328  0.00  0.00    +0.000 C 
ATOM      5  C9  UNL     1      -9.340  77.774  71.924  0.00  0.00    +0.000 C 
BRANCH   4  11
ATOM      6  C2  UNL     1     -10.492  78.813  74.815  0.00  0.00    +0.000 A 
ATOM      7  C3  UNL     1     -11.448  78.806  75.852  0.00  0.00    +0.000 A 
ATOM      8  C4  UNL     1     -12.815  78.890  75.560  0.00  0.00    +0.000 A 
ATOM      9  C5  UNL     1     -13.238  78.988  74.233  0.00  0.00    +0.000 A 
ATOM     10  C6  UNL     1     -12.303  78.986  73.198  0.00  0.00    +0.000 A 
ATOM     11  C7  UNL     1     -10.930  78.875  73.471  0.00  0.00    +0.000 A 
BRANCH   6  13
ATOM     12  C1  UNL     1      -8.403  77.662  75.585  0.00  0.00    +0.000 C 
ATOM     13  O1  UNL     1      -9.114  78.791  75.091  0.00  0.00    +0.000 OA
ENDBRANCH   6  13
BRANCH   8  14
ATOM     14  O6  UNL     1     -13.761  78.887  76.583  0.00  0.00    +0.000 OA
ATOM     15  H20 UNL     1     -13.492  78.980  77.556  0.00  0.00    +0.000 HD
ENDBRANCH   8  14
ENDBRANCH   4  11
ENDBRANCH   2   5
ENDBRANCH   1   2
BRANCH   1  16
ATOM     16  C12 UNL     1      -9.742  76.811  68.854  0.00  0.00    +0.000 C 
ATOM     17  O3  UNL     1      -9.615  76.818  67.600  0.00  0.00    +0.000 OA
BRANCH  16  18
ATOM     18  C13 UNL     1     -11.104  76.934  69.415  0.00  0.00    +0.000 C 
ATOM     19  C14 UNL     1     -11.616  76.071  70.307  0.00  0.00    +0.000 C 
BRANCH  19  20
ATOM     20  C15 UNL     1     -12.979  76.199  70.881  0.00  0.00    +0.000 A 
ATOM     21  C16 UNL     1     -14.014  76.894  70.223  0.00  0.00    +0.000 A 
ATOM     22  C17 UNL     1     -15.297  76.983  70.798  0.00  0.00    +0.000 A 
ATOM     23  C18 UNL     1     -15.543  76.362  72.030  0.00  0.00    +0.000 A 
ATOM     24  C19 UNL     1     -14.523  75.655  72.677  0.00  0.00    +0.000 A 
ATOM     25  C20 UNL     1     -13.253  75.569  72.104  0.00  0.00    +0.000 A 
BRANCH  23  26
ATOM     26  O4  UNL     1     -16.810  76.448  72.605  0.00  0.00    +0.000 OA
ATOM     27  H16 UNL     1     -17.310  75.622  72.915  0.00  0.00    +0.000 HD
ENDBRANCH  23  26
BRANCH  22  28
ATOM     28  O5  UNL     1     -16.351  77.673  70.177  0.00  0.00    +0.000 OA
ATOM     29  C21 UNL     1     -16.199  78.544  69.062  0.00  0.00    +0.000 C 
ENDBRANCH  22  28
ENDBRANCH  19  20
ENDBRANCH  16  18
ENDBRANCH   1  16
TORSDOF 10
ENDMDL
MODEL 3
REMARK VINA RESULT:      -5.0      1.295      4.987
REMARK  Name = .\curcumin.pdb
REMARK  12 active torsions:
REMARK  status: ('A' for Active; 'I' for Inactive)
REMARK    1  A    between atoms: C1_1  and  O1_2
REMARK    2  A    between atoms: O1_2  and  C2_3
REMARK    3  A    between atoms: C4_5  and  O6_27
REMARK    4  A    between atoms: C7_8  and  C8_9
REMARK    5  A    between atoms: C9_10  and  C10_11
REMARK    6  A    between atoms: C10_11  and  C11_13
REMARK    7  A    between atoms: C11_13  and  C12_14
REMARK    8  A    between atoms: C12_14  and  C13_16
REMARK    9  A    between atoms: C14_17  and  C15_18
REMARK   10  A    between atoms: C17_20  and  O5_25
REMARK   11  A    between atoms: C18_21  and  O4_24
REMARK   12  A    between atoms: O5_25  and  C21_26
REMARK                            x       y       z     vdW  Elec       q    Type
REMARK                         _______ _______ _______ _____ _____    ______ ____
ROOT
ATOM      1  C11 UNL     1      -8.403  77.300  70.003  0.00  0.00    +0.000 C 
ENDROOT
BRANCH   1   2
ATOM      2  C10 UNL     1      -9.778  77.031  69.458  0.00  0.00    +0.000 C 
ATOM      3  O2  UNL     1      -9.990  77.168  68.223  0.00  0.00    +0.000 OA
BRANCH   2   5
ATOM      4  C8  UNL     1     -12.126  76.954  70.208  0.00  0.00    +0.000 C 
ATOM      5  C9  UNL     1     -10.852  76.573  70.361  0.00  0.00    +0.000 C 
BRANCH   4  11
ATOM      6  C2  UNL     1     -14.575  76.486  70.685  0.00  0.00    +0.000 A 
ATOM      7  C3  UNL     1     -15.562  76.022  71.580  0.00  0.00    +0.000 A 
ATOM      8  C4  UNL     1     -15.203  75.524  72.838  0.00  0.00    +0.000 A 
ATOM      9  C5  UNL     1     -13.859  75.479  73.211  0.00  0.00    +0.000 A 
ATOM     10  C6  UNL     1     -12.874  75.944  72.339  0.00  0.00    +0.000 A 
ATOM     11  C7  UNL     1     -13.218  76.473  71.085  0.00  0.00    +0.000 A 
BRANCH   6  13
ATOM     12  C1  UNL     1     -15.882  77.933  69.108  0.00  0.00    +0.000 C 
ATOM     13  O1  UNL     1     -14.910  76.933  69.395  0.00  0.00    +0.000 OA
ENDBRANCH   6  13
BRANCH   8  14
ATOM     14  O6  UNL     1     -16.176  75.062  73.722  0.00  0.00    +0.000 OA
ATOM     15  H20 UNL     1     -15.929  74.590  74.584  0.00  0.00    +0.000 HD
ENDBRANCH   8  14
ENDBRANCH   4  11
ENDBRANCH   2   5
ENDBRANCH   1   2
BRANCH   1  16
ATOM     16  C12 UNL     1      -8.432  78.155  71.249  0.00  0.00    +0.000 C 
ATOM     17  O3  UNL     1      -7.498  78.970  71.477  0.00  0.00    +0.000 OA
BRANCH  16  18
ATOM     18  C13 UNL     1      -9.536  78.071  72.230  0.00  0.00    +0.000 C 
ATOM     19  C14 UNL     1     -10.148  79.147  72.747  0.00  0.00    +0.000 C 
BRANCH  19  20
ATOM     20  C15 UNL     1     -11.264  79.065  73.722  0.00  0.00    +0.000 A 
ATOM     21  C16 UNL     1     -12.603  79.319  73.363  0.00  0.00    +0.000 A 
ATOM     22  C17 UNL     1     -13.634  79.220  74.318  0.00  0.00    +0.000 A 
ATOM     23  C18 UNL     1     -13.320  78.853  75.634  0.00  0.00    +0.000 A 
ATOM     24  C19 UNL     1     -11.994  78.583  75.990  0.00  0.00    +0.000 A 
ATOM     25  C20 UNL     1     -10.975  78.682  75.040  0.00  0.00    +0.000 A 
BRANCH  23  26
ATOM     26  O4  UNL     1     -14.336  78.756  76.583  0.00  0.00    +0.000 OA
ATOM     27  H16 UNL     1     -15.219  78.304  76.371  0.00  0.00    +0.000 HD
ENDBRANCH  23  26
BRANCH  22  28
ATOM     28  O5  UNL     1     -14.978  79.472  73.999  0.00  0.00    +0.000 OA
ATOM     29  C21 UNL     1     -15.464  79.711  72.682  0.00  0.00    +0.000 C 
ENDBRANCH  22  28
ENDBRANCH  19  20
ENDBRANCH  16  18
ENDBRANCH   1  16
TORSDOF 10
ENDMDL
MODEL 4
REMARK VINA RESULT:      -4.9      1.938      5.253
REMARK  Name = .\curcumin.pdb
REMARK  12 active torsions:
REMARK  status: ('A' for Active; 'I' for Inactive)
REMARK    1  A    between atoms: C1_1  and  O1_2
REMARK    2  A    between atoms: O1_2  and  C2_3
REMARK    3  A    between atoms: C4_5  and  O6_27
REMARK    4  A    between atoms: C7_8  and  C8_9
REMARK    5  A    between atoms: C9_10  and  C10_11
REMARK    6  A    between atoms: C10_11  and  C11_13
REMARK    7  A    between atoms: C11_13  and  C12_14
REMARK    8  A    between atoms: C12_14  and  C13_16
REMARK    9  A    between atoms: C14_17  and  C15_18
REMARK   10  A    between atoms: C17_20  and  O5_25
REMARK   11  A    between atoms: C18_21  and  O4_24
REMARK   12  A    between atoms: O5_25  and  C21_26
REMARK                            x       y       z     vdW  Elec       q    Type
REMARK                         _______ _______ _______ _____ _____    ______ ____
ROOT
ATOM      1  C11 UNL     1      -8.027  80.321  74.179  0.00  0.00    +0.000 C 
ENDROOT
BRANCH   1   2
ATOM      2  C10 UNL     1      -7.847  79.004  73.478  0.00  0.00    +0.000 C 
ATOM      3  O2  UNL     1      -6.760  78.379  73.607  0.00  0.00    +0.000 OA
BRANCH   2   5
ATOM      4  C8  UNL     1      -9.531  77.268  72.993  0.00  0.00    +0.000 C 
ATOM      5  C9  UNL     1      -8.953  78.435  72.683  0.00  0.00    +0.000 C 
BRANCH   4  11
ATOM      6  C2  UNL     1     -10.702  76.714  70.809  0.00  0.00    +0.000 A 
ATOM      7  C3  UNL     1     -11.822  76.171  70.147  0.00  0.00    +0.000 A 
ATOM      8  C4  UNL     1     -12.872  75.599  70.876  0.00  0.00    +0.000 A 
ATOM      9  C5  UNL     1     -12.811  75.561  72.269  0.00  0.00    +0.000 A 
ATOM     10  C6  UNL     1     -11.714  76.104  72.938  0.00  0.00    +0.000 A 
ATOM     11  C7  UNL     1     -10.665  76.705  72.224  0.00  0.00    +0.000 A 
BRANCH   6  13
ATOM     12  C1  UNL     1      -8.762  76.478  69.240  0.00  0.00    +0.000 C 
ATOM     13  O1  UNL     1      -9.611  77.236  70.094  0.00  0.00    +0.000 OA
ENDBRANCH   6  13
BRANCH   8  14
ATOM     14  O6  UNL     1     -13.978  75.059  70.222  0.00  0.00    +0.000 OA
ATOM     15  H20 UNL     1     -14.845  75.575  70.131  0.00  0.00    +0.000 HD
ENDBRANCH   8  14
ENDBRANCH   4  11
ENDBRANCH   2   5
ENDBRANCH   1   2
BRANCH   1  16
ATOM     16  C12 UNL     1      -8.697  80.173  75.525  0.00  0.00    +0.000 C 
ATOM     17  O3  UNL     1      -8.098  80.540  76.572  0.00  0.00    +0.000 OA
BRANCH  16  18
ATOM     18  C13 UNL     1     -10.054  79.602  75.665  0.00  0.00    +0.000 C 
ATOM     19  C14 UNL     1     -11.123  80.067  74.999  0.00  0.00    +0.000 C 
BRANCH  19  20
ATOM     20  C15 UNL     1     -12.483  79.488  75.129  0.00  0.00    +0.000 A 
ATOM     21  C16 UNL     1     -13.237  79.071  74.012  0.00  0.00    +0.000 A 
ATOM     22  C17 UNL     1     -14.522  78.517  74.180  0.00  0.00    +0.000 A 
ATOM     23  C18 UNL     1     -15.044  78.371  75.472  0.00  0.00    +0.000 A 
ATOM     24  C19 UNL     1     -14.291  78.767  76.583  0.00  0.00    +0.000 A 
ATOM     25  C20 UNL     1     -13.019  79.315  76.413  0.00  0.00    +0.000 A 
BRANCH  23  26
ATOM     26  O4  UNL     1     -16.315  77.825  75.644  0.00  0.00    +0.000 OA
ATOM     27  H16 UNL     1     -16.488  77.082  76.312  0.00  0.00    +0.000 HD
ENDBRANCH  23  26
BRANCH  22  28
ATOM     28  O5  UNL     1     -15.305  78.097  73.093  0.00  0.00    +0.000 OA
ATOM     29  C21 UNL     1     -15.147  78.565  71.757  0.00  0.00    +0.000 C 
ENDBRANCH  22  28
ENDBRANCH  19  20
ENDBRANCH  16  18
ENDBRANCH   1  16
TORSDOF 10
ENDMDL
MODEL 5
REMARK VINA RESULT:      -4.6      1.728      3.094
REMARK  Name = .\curcumin.pdb
REMARK  12 active torsions:
REMARK  status: ('A' for Active; 'I' for Inactive)
REMARK    1  A    between atoms: C1_1  and  O1_2
REMARK    2  A    between atoms: O1_2  and  C2_3
REMARK    3  A    between atoms: C4_5  and  O6_27
REMARK    4  A    between atoms: C7_8  and  C8_9
REMARK    5  A    between atoms: C9_10  and  C10_11
REMARK    6  A    between atoms: C10_11  and  C11_13
REMARK    7  A    between atoms: C11_13  and  C12_14
REMARK    8  A    between atoms: C12_14  and  C13_16
REMARK    9  A    between atoms: C14_17  and  C15_18
REMARK   10  A    between atoms: C17_20  and  O5_25
REMARK   11  A    between atoms: C18_21  and  O4_24
REMARK   12  A    between atoms: O5_25  and  C21_26
REMARK                            x       y       z     vdW  Elec       q    Type
REMARK                         _______ _______ _______ _____ _____    ______ ____
ROOT
ATOM      1  C11 UNL     1      -8.602  77.862  71.053  0.00  0.00    +0.000 C 
ENDROOT
BRANCH   1   2
ATOM      2  C10 UNL     1      -9.225  78.059  72.407  0.00  0.00    +0.000 C 
ATOM      3  O2  UNL     1      -8.579  77.727  73.437  0.00  0.00    +0.000 OA
BRANCH   2   5
ATOM      4  C8  UNL     1     -11.586  78.052  73.121  0.00  0.00    +0.000 C 
ATOM      5  C9  UNL     1     -10.562  78.673  72.522  0.00  0.00    +0.000 C 
BRANCH   4  11
ATOM      6  C2  UNL     1     -13.999  78.008  73.906  0.00  0.00    +0.000 A 
ATOM      7  C3  UNL     1     -15.247  78.659  74.003  0.00  0.00    +0.000 A 
ATOM      8  C4  UNL     1     -15.412  79.959  73.510  0.00  0.00    +0.000 A 
ATOM      9  C5  UNL     1     -14.333  80.621  72.922  0.00  0.00    +0.000 A 
ATOM     10  C6  UNL     1     -13.097  79.986  72.810  0.00  0.00    +0.000 A 
ATOM     11  C7  UNL     1     -12.921  78.672  73.274  0.00  0.00    +0.000 A 
BRANCH   6  13
ATOM     12  C1  UNL     1     -14.822  75.760  74.649  0.00  0.00    +0.000 C 
ATOM     13  O1  UNL     1     -13.797  76.728  74.448  0.00  0.00    +0.000 OA
ENDBRANCH   6  13
BRANCH   8  14
ATOM     14  O6  UNL     1     -16.643  80.605  73.609  0.00  0.00    +0.000 OA
ATOM     15  H20 UNL     1     -16.989  81.204  72.869  0.00  0.00    +0.000 HD
ENDBRANCH   8  14
ENDBRANCH   4  11
ENDBRANCH   2   5
ENDBRANCH   1   2
BRANCH   1  16
ATOM     16  C12 UNL     1      -9.315  76.807  70.239  0.00  0.00    +0.000 C 
ATOM     17  O3  UNL     1      -8.730  76.261  69.264  0.00  0.00    +0.000 OA
BRANCH  16  18
ATOM     18  C13 UNL     1     -10.698  76.382  70.546  0.00  0.00    +0.000 C 
ATOM     19  C14 UNL     1     -11.778  76.876  69.921  0.00  0.00    +0.000 C 
BRANCH  19  20
ATOM     20  C15 UNL     1     -13.165  76.442  70.219  0.00  0.00    +0.000 A 
ATOM     21  C16 UNL     1     -14.291  77.220  69.878  0.00  0.00    +0.000 A 
ATOM     22  C17 UNL     1     -15.592  76.766  70.170  0.00  0.00    +0.000 A 
ATOM     23  C18 UNL     1     -15.764  75.523  70.795  0.00  0.00    +0.000 A 
ATOM     24  C19 UNL     1     -14.650  74.740  71.118  0.00  0.00    +0.000 A 
ATOM     25  C20 UNL     1     -13.362  75.193  70.827  0.00  0.00    +0.000 A 
BRANCH  23  26
ATOM     26  O4  UNL     1     -17.049  75.070  71.087  0.00  0.00    +0.000 OA
ATOM     27  H16 UNL     1     -17.818  75.715  71.237  0.00  0.00    +0.000 HD
ENDBRANCH  23  26
BRANCH  22  28
ATOM     28  O5  UNL     1     -16.737  77.516  69.852  0.00  0.00    +0.000 OA
ATOM     29  C21 UNL     1     -17.181  78.657  70.577  0.00  0.00    +0.000 C 
ENDBRANCH  22  28
ENDBRANCH  19  20
ENDBRANCH  16  18
ENDBRANCH   1  16
TORSDOF 10
ENDMDL
MODEL 6
REMARK VINA RESULT:      -4.4      2.132      5.684
REMARK  Name = .\curcumin.pdb
REMARK  12 active torsions:
REMARK  status: ('A' for Active; 'I' for Inactive)
REMARK    1  A    between atoms: C1_1  and  O1_2
REMARK    2  A    between atoms: O1_2  and  C2_3
REMARK    3  A    between atoms: C4_5  and  O6_27
REMARK    4  A    between atoms: C7_8  and  C8_9
REMARK    5  A    between atoms: C9_10  and  C10_11
REMARK    6  A    between atoms: C10_11  and  C11_13
REMARK    7  A    between atoms: C11_13  and  C12_14
REMARK    8  A    between atoms: C12_14  and  C13_16
REMARK    9  A    between atoms: C14_17  and  C15_18
REMARK   10  A    between atoms: C17_20  and  O5_25
REMARK   11  A    between atoms: C18_21  and  O4_24
REMARK   12  A    between atoms: O5_25  and  C21_26
REMARK                            x       y       z     vdW  Elec       q    Type
REMARK                         _______ _______ _______ _____ _____    ______ ____
ROOT
ATOM      1  C11 UNL     1      -9.357  79.801  75.422  0.00  0.00    +0.000 C 
ENDROOT
BRANCH   1   2
ATOM      2  C10 UNL     1      -8.229  79.232  74.607  0.00  0.00    +0.000 C 
ATOM      3  O2  UNL     1      -7.107  79.047  75.151  0.00  0.00    +0.000 OA
BRANCH   2   5
ATOM      4  C8  UNL     1      -9.203  77.805  72.847  0.00  0.00    +0.000 C 
ATOM      5  C9  UNL     1      -8.454  78.858  73.197  0.00  0.00    +0.000 C 
BRANCH   4  11
ATOM      6  C2  UNL     1     -10.766  77.162  70.953  0.00  0.00    +0.000 A 
ATOM      7  C3  UNL     1     -10.936  76.811  69.598  0.00  0.00    +0.000 A 
ATOM      8  C4  UNL     1      -9.838  76.770  68.729  0.00  0.00    +0.000 A 
ATOM      9  C5  UNL     1      -8.564  77.085  69.204  0.00  0.00    +0.000 A 
ATOM     10  C6  UNL     1      -8.380  77.424  70.545  0.00  0.00    +0.000 A 
ATOM     11  C7  UNL     1      -9.465  77.442  71.436  0.00  0.00    +0.000 A 
BRANCH   6  13
ATOM     12  C1  UNL     1     -13.103  76.589  71.656  0.00  0.00    +0.000 C 
ATOM     13  O1  UNL     1     -11.862  77.267  71.825  0.00  0.00    +0.000 OA
ENDBRANCH   6  13
BRANCH   8  14
ATOM     14  O6  UNL     1     -10.005  76.427  67.389  0.00  0.00    +0.000 OA
ATOM     15  H20 UNL     1     -10.634  75.685  67.105  0.00  0.00    +0.000 HD
ENDBRANCH   8  14
ENDBRANCH   4  11
ENDBRANCH   2   5
ENDBRANCH   1   2
BRANCH   1  16
ATOM     16  C12 UNL     1     -10.353  78.747  75.844  0.00  0.00    +0.000 C 
ATOM     17  O3  UNL     1      -9.987  77.793  76.583  0.00  0.00    +0.000 OA
BRANCH  16  18
ATOM     18  C13 UNL     1     -11.768  78.790  75.416  0.00  0.00    +0.000 C 
ATOM     19  C14 UNL     1     -12.227  79.622  74.467  0.00  0.00    +0.000 C 
BRANCH  19  20
ATOM     20  C15 UNL     1     -13.644  79.659  74.027  0.00  0.00    +0.000 A 
ATOM     21  C16 UNL     1     -14.027  80.114  72.749  0.00  0.00    +0.000 A 
ATOM     22  C17 UNL     1     -15.383  80.123  72.367  0.00  0.00    +0.000 A 
ATOM     23  C18 UNL     1     -16.354  79.663  73.266  0.00  0.00    +0.000 A 
ATOM     24  C19 UNL     1     -15.976  79.193  74.529  0.00  0.00    +0.000 A 
ATOM     25  C20 UNL     1     -14.631  79.185  74.904  0.00  0.00    +0.000 A 
BRANCH  23  26
ATOM     26  O4  UNL     1     -17.697  79.672  72.894  0.00  0.00    +0.000 OA
ATOM     27  H16 UNL     1     -18.026  79.164  72.080  0.00  0.00    +0.000 HD
ENDBRANCH  23  26
BRANCH  22  28
ATOM     28  O5  UNL     1     -15.803  80.576  71.106  0.00  0.00    +0.000 OA
ATOM     29  C21 UNL     1     -16.197  79.726  70.033  0.00  0.00    +0.000 C 
ENDBRANCH  22  28
ENDBRANCH  19  20
ENDBRANCH  16  18
ENDBRANCH   1  16
TORSDOF 10
ENDMDL
MODEL 7
REMARK VINA RESULT:      -4.0      1.748      5.461
REMARK  Name = .\curcumin.pdb
REMARK  12 active torsions:
REMARK  status: ('A' for Active; 'I' for Inactive)
REMARK    1  A    between atoms: C1_1  and  O1_2
REMARK    2  A    between atoms: O1_2  and  C2_3
REMARK    3  A    between atoms: C4_5  and  O6_27
REMARK    4  A    between atoms: C7_8  and  C8_9
REMARK    5  A    between atoms: C9_10  and  C10_11
REMARK    6  A    between atoms: C10_11  and  C11_13
REMARK    7  A    between atoms: C11_13  and  C12_14
REMARK    8  A    between atoms: C12_14  and  C13_16
REMARK    9  A    between atoms: C14_17  and  C15_18
REMARK   10  A    between atoms: C17_20  and  O5_25
REMARK   11  A    between atoms: C18_21  and  O4_24
REMARK   12  A    between atoms: O5_25  and  C21_26
REMARK                            x       y       z     vdW  Elec       q    Type
REMARK                         _______ _______ _______ _____ _____    ______ ____
ROOT
ATOM      1  C11 UNL     1     -11.108  80.576  75.156  0.00  0.00    +0.000 C 
ENDROOT
BRANCH   1   2
ATOM      2  C10 UNL     1      -9.816  79.811  75.234  0.00  0.00    +0.000 C 
ATOM      3  O2  UNL     1      -9.166  79.808  76.314  0.00  0.00    +0.000 OA
BRANCH   2   5
ATOM      4  C8  UNL     1     -10.157  78.689  73.065  0.00  0.00    +0.000 C 
ATOM      5  C9  UNL     1      -9.342  79.043  74.066  0.00  0.00    +0.000 C 
BRANCH   4  11
ATOM      6  C2  UNL     1     -10.447  76.922  71.265  0.00  0.00    +0.000 A 
ATOM      7  C3  UNL     1      -9.926  76.254  70.137  0.00  0.00    +0.000 A 
ATOM      8  C4  UNL     1      -8.686  76.622  69.601  0.00  0.00    +0.000 A 
ATOM      9  C5  UNL     1      -7.958  77.662  70.183  0.00  0.00    +0.000 A 
ATOM     10  C6  UNL     1      -8.457  78.324  71.305  0.00  0.00    +0.000 A 
ATOM     11  C7  UNL     1      -9.686  77.950  71.871  0.00  0.00    +0.000 A 
BRANCH   6  13
ATOM     12  C1  UNL     1     -12.400  75.379  71.563  0.00  0.00    +0.000 C 
ATOM     13  O1  UNL     1     -11.716  76.609  71.780  0.00  0.00    +0.000 OA
ENDBRANCH   6  13
BRANCH   8  14
ATOM     14  O6  UNL     1      -8.172  75.966  68.485  0.00  0.00    +0.000 OA
ATOM     15  H20 UNL     1      -7.233  76.145  68.149  0.00  0.00    +0.000 HD
ENDBRANCH   8  14
ENDBRANCH   4  11
ENDBRANCH   2   5
ENDBRANCH   1   2
BRANCH   1  16
ATOM     16  C12 UNL     1     -12.314  79.699  75.406  0.00  0.00    +0.000 C 
ATOM     17  O3  UNL     1     -12.616  79.364  76.583  0.00  0.00    +0.000 OA
BRANCH  16  18
ATOM     18  C13 UNL     1     -13.169  79.210  74.303  0.00  0.00    +0.000 C 
ATOM     19  C14 UNL     1     -13.922  78.102  74.387  0.00  0.00    +0.000 C 
BRANCH  19  20
ATOM     20  C15 UNL     1     -14.790  77.616  73.287  0.00  0.00    +0.000 A 
ATOM     21  C16 UNL     1     -15.096  78.406  72.159  0.00  0.00    +0.000 A 
ATOM     22  C17 UNL     1     -15.916  77.902  71.131  0.00  0.00    +0.000 A 
ATOM     23  C18 UNL     1     -16.420  76.598  71.229  0.00  0.00    +0.000 A 
ATOM     24  C19 UNL     1     -16.103  75.805  72.337  0.00  0.00    +0.000 A 
ATOM     25  C20 UNL     1     -15.289  76.307  73.355  0.00  0.00    +0.000 A 
BRANCH  23  26
ATOM     26  O4  UNL     1     -17.233  76.095  70.215  0.00  0.00    +0.000 OA
ATOM     27  H16 UNL     1     -16.890  75.979  69.268  0.00  0.00    +0.000 HD
ENDBRANCH  23  26
BRANCH  22  28
ATOM     28  O5  UNL     1     -16.248  78.661  69.997  0.00  0.00    +0.000 OA
ATOM     29  C21 UNL     1     -16.643  80.029  70.029  0.00  0.00    +0.000 C 
ENDBRANCH  22  28
ENDBRANCH  19  20
ENDBRANCH  16  18
ENDBRANCH   1  16
TORSDOF 10
ENDMDL
MODEL 8
REMARK VINA RESULT:      -3.9      1.775      5.316
REMARK  Name = .\curcumin.pdb
REMARK  12 active torsions:
REMARK  status: ('A' for Active; 'I' for Inactive)
REMARK    1  A    between atoms: C1_1  and  O1_2
REMARK    2  A    between atoms: O1_2  and  C2_3
REMARK    3  A    between atoms: C4_5  and  O6_27
REMARK    4  A    between atoms: C7_8  and  C8_9
REMARK    5  A    between atoms: C9_10  and  C10_11
REMARK    6  A    between atoms: C10_11  and  C11_13
REMARK    7  A    between atoms: C11_13  and  C12_14
REMARK    8  A    between atoms: C12_14  and  C13_16
REMARK    9  A    between atoms: C14_17  and  C15_18
REMARK   10  A    between atoms: C17_20  and  O5_25
REMARK   11  A    between atoms: C18_21  and  O4_24
REMARK   12  A    between atoms: O5_25  and  C21_26
REMARK                            x       y       z     vdW  Elec       q    Type
REMARK                         _______ _______ _______ _____ _____    ______ ____
ROOT
ATOM      1  C11 UNL     1     -11.071  80.522  75.151  0.00  0.00    +0.000 C 
ENDROOT
BRANCH   1   2
ATOM      2  C10 UNL     1      -9.773  79.772  75.254  0.00  0.00    +0.000 C 
ATOM      3  O2  UNL     1      -9.174  79.724  76.362  0.00  0.00    +0.000 OA
BRANCH   2   5
ATOM      4  C8  UNL     1     -10.021  78.612  73.091  0.00  0.00    +0.000 C 
ATOM      5  C9  UNL     1      -9.234  79.067  74.075  0.00  0.00    +0.000 C 
BRANCH   4  11
ATOM      6  C2  UNL     1      -8.359  78.416  71.183  0.00  0.00    +0.000 A 
ATOM      7  C3  UNL     1      -7.918  77.725  70.035  0.00  0.00    +0.000 A 
ATOM      8  C4  UNL     1      -8.568  76.559  69.613  0.00  0.00    +0.000 A 
ATOM      9  C5  UNL     1      -9.658  76.071  70.334  0.00  0.00    +0.000 A 
ATOM     10  C6  UNL     1     -10.112  76.750  71.465  0.00  0.00    +0.000 A 
ATOM     11  C7  UNL     1      -9.489  77.936  71.887  0.00  0.00    +0.000 A 
BRANCH   6  13
ATOM     12  C1  UNL     1      -6.860  80.399  70.862  0.00  0.00    +0.000 C 
ATOM     13  O1  UNL     1      -7.684  79.553  71.657  0.00  0.00    +0.000 OA
ENDBRANCH   6  13
BRANCH   8  14
ATOM     14  O6  UNL     1      -8.131  75.873  68.482  0.00  0.00    +0.000 OA
ATOM     15  H20 UNL     1      -8.782  75.425  67.847  0.00  0.00    +0.000 HD
ENDBRANCH   8  14
ENDBRANCH   4  11
ENDBRANCH   2   5
ENDBRANCH   1   2
BRANCH   1  16
ATOM     16  C12 UNL     1     -12.271  79.638  75.402  0.00  0.00    +0.000 C 
ATOM     17  O3  UNL     1     -12.630  79.383  76.583  0.00  0.00    +0.000 OA
BRANCH  16  18
ATOM     18  C13 UNL     1     -13.055  79.049  74.295  0.00  0.00    +0.000 C 
ATOM     19  C14 UNL     1     -13.751  79.782  73.412  0.00  0.00    +0.000 C 
BRANCH  19  20
ATOM     20  C15 UNL     1     -14.528  79.194  72.293  0.00  0.00    +0.000 A 
ATOM     21  C16 UNL     1     -14.439  77.831  71.944  0.00  0.00    +0.000 A 
ATOM     22  C17 UNL     1     -15.203  77.311  70.880  0.00  0.00    +0.000 A 
ATOM     23  C18 UNL     1     -16.066  78.159  70.174  0.00  0.00    +0.000 A 
ATOM     24  C19 UNL     1     -16.171  79.508  70.529  0.00  0.00    +0.000 A 
ATOM     25  C20 UNL     1     -15.413  80.020  71.584  0.00  0.00    +0.000 A 
BRANCH  23  26
ATOM     26  O4  UNL     1     -16.822  77.650  69.119  0.00  0.00    +0.000 OA
ATOM     27  H16 UNL     1     -17.143  78.243  68.361  0.00  0.00    +0.000 HD
ENDBRANCH  23  26
BRANCH  22  28
ATOM     28  O5  UNL     1     -15.135  75.961  70.499  0.00  0.00    +0.000 OA
ATOM     29  C21 UNL     1     -13.985  75.135  70.653  0.00  0.00    +0.000 C 
ENDBRANCH  22  28
ENDBRANCH  19  20
ENDBRANCH  16  18
ENDBRANCH   1  16
TORSDOF 10
ENDMDL
MODEL 9
REMARK VINA RESULT:      -3.9      1.440      4.922
REMARK  Name = .\curcumin.pdb
REMARK  12 active torsions:
REMARK  status: ('A' for Active; 'I' for Inactive)
REMARK    1  A    between atoms: C1_1  and  O1_2
REMARK    2  A    between atoms: O1_2  and  C2_3
REMARK    3  A    between atoms: C4_5  and  O6_27
REMARK    4  A    between atoms: C7_8  and  C8_9
REMARK    5  A    between atoms: C9_10  and  C10_11
REMARK    6  A    between atoms: C10_11  and  C11_13
REMARK    7  A    between atoms: C11_13  and  C12_14
REMARK    8  A    between atoms: C12_14  and  C13_16
REMARK    9  A    between atoms: C14_17  and  C15_18
REMARK   10  A    between atoms: C17_20  and  O5_25
REMARK   11  A    between atoms: C18_21  and  O4_24
REMARK   12  A    between atoms: O5_25  and  C21_26
REMARK                            x       y       z     vdW  Elec       q    Type
REMARK                         _______ _______ _______ _____ _____    ______ ____
ROOT
ATOM      1  C11 UNL     1      -8.817  77.621  70.614  0.00  0.00    +0.000 C 
ENDROOT
BRANCH   1   2
ATOM      2  C10 UNL     1      -9.827  76.520  70.447  0.00  0.00    +0.000 C 
ATOM      3  O2  UNL     1      -9.436  75.322  70.436  0.00  0.00    +0.000 OA
BRANCH   2   5
ATOM      4  C8  UNL     1     -12.188  76.263  71.112  0.00  0.00    +0.000 C 
ATOM      5  C9  UNL     1     -11.262  76.846  70.340  0.00  0.00    +0.000 C 
BRANCH   4  11
ATOM      6  C2  UNL     1     -14.509  76.420  72.129  0.00  0.00    +0.000 A 
ATOM      7  C3  UNL     1     -15.869  76.761  71.980  0.00  0.00    +0.000 A 
ATOM      8  C4  UNL     1     -16.338  77.310  70.780  0.00  0.00    +0.000 A 
ATOM      9  C5  UNL     1     -15.453  77.528  69.723  0.00  0.00    +0.000 A 
ATOM     10  C6  UNL     1     -14.107  77.186  69.853  0.00  0.00    +0.000 A 
ATOM     11  C7  UNL     1     -13.626  76.609  71.039  0.00  0.00    +0.000 A 
BRANCH   6  13
ATOM     12  C1  UNL     1     -14.776  75.751  74.530  0.00  0.00    +0.000 C 
ATOM     13  O1  UNL     1     -14.007  75.925  73.344  0.00  0.00    +0.000 OA
ENDBRANCH   6  13
BRANCH   8  14
ATOM     14  O6  UNL     1     -17.681  77.651  70.632  0.00  0.00    +0.000 OA
ATOM     15  H20 UNL     1     -17.975  78.614  70.518  0.00  0.00    +0.000 HD
ENDBRANCH   8  14
ENDBRANCH   4  11
ENDBRANCH   2   5
ENDBRANCH   1   2
BRANCH   1  16
ATOM     16  C12 UNL     1      -8.834  78.215  72.004  0.00  0.00    +0.000 C 
ATOM     17  O3  UNL     1      -7.752  78.401  72.623  0.00  0.00    +0.000 OA
BRANCH  16  18
ATOM     18  C13 UNL     1     -10.095  78.592  72.678  0.00  0.00    +0.000 C 
ATOM     19  C14 UNL     1     -10.499  78.057  73.841  0.00  0.00    +0.000 C 
BRANCH  19  20
ATOM     20  C15 UNL     1     -11.758  78.443  74.526  0.00  0.00    +0.000 A 
ATOM     21  C16 UNL     1     -12.801  79.124  73.864  0.00  0.00    +0.000 A 
ATOM     22  C17 UNL     1     -13.984  79.462  74.550  0.00  0.00    +0.000 A 
ATOM     23  C18 UNL     1     -14.125  79.106  75.898  0.00  0.00    +0.000 A 
ATOM     24  C19 UNL     1     -13.099  78.415  76.552  0.00  0.00    +0.000 A 
ATOM     25  C20 UNL     1     -11.928  78.081  75.870  0.00  0.00    +0.000 A 
BRANCH  23  26
ATOM     26  O4  UNL     1     -15.293  79.441  76.581  0.00  0.00    +0.000 OA
ATOM     27  H16 UNL     1     -16.154  78.922  76.446  0.00  0.00    +0.000 HD
ENDBRANCH  23  26
BRANCH  22  28
ATOM     28  O5  UNL     1     -15.042  80.145  73.927  0.00  0.00    +0.000 OA
ATOM     29  C21 UNL     1     -15.167  80.328  72.520  0.00  0.00    +0.000 C 
ENDBRANCH  22  28
ENDBRANCH  19  20
ENDBRANCH  16  18
ENDBRANCH   1  16
TORSDOF 10
ENDMDL
