MODEL 1
REMARK VINA RESULT:      -4.6      0.000      0.000
REMARK  Name = .\curcumin.pdb
REMARK  12 active torsions:
REMARK  status: ('A' for Active; 'I' for Inactive)
REMARK    1  A    between atoms: C1_1  and  O1_2
REMARK    2  A    between atoms: O1_2  and  C2_3
REMARK    3  A    between atoms: C4_5  and  O6_27
REMARK    4  A    between atoms: C7_8  and  C8_9
REMARK    5  A    between atoms: C9_10  and  C10_11
REMARK    6  A    between atoms: C10_11  and  C11_13
REMARK    7  A    between atoms: C11_13  and  C12_14
REMARK    8  A    between atoms: C12_14  and  C13_16
REMARK    9  A    between atoms: C14_17  and  C15_18
REMARK   10  A    between atoms: C17_20  and  O5_25
REMARK   11  A    between atoms: C18_21  and  O4_24
REMARK   12  A    between atoms: O5_25  and  C21_26
REMARK                            x       y       z     vdW  Elec       q    Type
REMARK                         _______ _______ _______ _____ _____    ______ ____
ROOT
ATOM      1  C11 UNL     1     -16.558  34.150  46.365  0.00  0.00    +0.000 C 
ENDROOT
BRANCH   1   2
ATOM      2  C10 UNL     1     -15.334  34.317  47.222  0.00  0.00    +0.000 C 
ATOM      3  O2  UNL     1     -15.014  33.401  48.026  0.00  0.00    +0.000 OA
BRANCH   2   5
ATOM      4  C8  UNL     1     -14.604  36.355  46.040  0.00  0.00    +0.000 C 
ATOM      5  C9  UNL     1     -14.499  35.526  47.086  0.00  0.00    +0.000 C 
BRANCH   4  11
ATOM      6  C2  UNL     1     -14.035  38.738  46.703  0.00  0.00    +0.000 A 
ATOM      7  C3  UNL     1     -13.233  39.883  46.515  0.00  0.00    +0.000 A 
ATOM      8  C4  UNL     1     -12.191  39.876  45.579  0.00  0.00    +0.000 A 
ATOM      9  C5  UNL     1     -11.940  38.727  44.828  0.00  0.00    +0.000 A 
ATOM     10  C6  UNL     1     -12.732  37.591  44.997  0.00  0.00    +0.000 A 
ATOM     11  C7  UNL     1     -13.797  37.590  45.911  0.00  0.00    +0.000 A 
BRANCH   6  13
ATOM     12  C1  UNL     1     -15.960  39.764  47.938  0.00  0.00    +0.000 C 
ATOM     13  O1  UNL     1     -15.045  38.705  47.680  0.00  0.00    +0.000 OA
ENDBRANCH   6  13
BRANCH   8  14
ATOM     14  O6  UNL     1     -11.395  41.005  45.394  0.00  0.00    +0.000 OA
ATOM     15  H20 UNL     1     -10.572  41.172  45.960  0.00  0.00    +0.000 HD
ENDBRANCH   8  14
ENDBRANCH   4  11
ENDBRANCH   2   5
ENDBRANCH   1   2
BRANCH   1  16
ATOM     16  C12 UNL     1     -16.499  32.905  45.510  0.00  0.00    +0.000 C 
ATOM     17  O3  UNL     1     -17.046  31.842  45.907  0.00  0.00    +0.000 OA
BRANCH  16  18
ATOM     18  C13 UNL     1     -15.811  32.887  44.201  0.00  0.00    +0.000 C 
ATOM     19  C14 UNL     1     -15.376  33.994  43.579  0.00  0.00    +0.000 C 
BRANCH  19  20
ATOM     20  C15 UNL     1     -14.675  33.976  42.272  0.00  0.00    +0.000 A 
ATOM     21  C16 UNL     1     -13.946  35.083  41.789  0.00  0.00    +0.000 A 
ATOM     22  C17 UNL     1     -13.286  35.021  40.546  0.00  0.00    +0.000 A 
ATOM     23  C18 UNL     1     -13.347  33.841  39.793  0.00  0.00    +0.000 A 
ATOM     24  C19 UNL     1     -14.054  32.734  40.277  0.00  0.00    +0.000 A 
ATOM     25  C20 UNL     1     -14.707  32.799  41.509  0.00  0.00    +0.000 A 
BRANCH  23  26
ATOM     26  O4  UNL     1     -12.697  33.775  38.562  0.00  0.00    +0.000 OA
ATOM     27  H16 UNL     1     -12.280  34.596  38.136  0.00  0.00    +0.000 HD
ENDBRANCH  23  26
BRANCH  22  28
ATOM     28  O5  UNL     1     -12.557  36.105  40.030  0.00  0.00    +0.000 OA
ATOM     29  C21 UNL     1     -11.682  36.927  40.795  0.00  0.00    +0.000 C 
ENDBRANCH  22  28
ENDBRANCH  19  20
ENDBRANCH  16  18
ENDBRANCH   1  16
TORSDOF 10
ENDMDL
MODEL 2
REMARK VINA RESULT:      -4.2      1.504      2.802
REMARK  Name = .\curcumin.pdb
REMARK  12 active torsions:
REMARK  status: ('A' for Active; 'I' for Inactive)
REMARK    1  A    between atoms: C1_1  and  O1_2
REMARK    2  A    between atoms: O1_2  and  C2_3
REMARK    3  A    between atoms: C4_5  and  O6_27
REMARK    4  A    between atoms: C7_8  and  C8_9
REMARK    5  A    between atoms: C9_10  and  C10_11
REMARK    6  A    between atoms: C10_11  and  C11_13
REMARK    7  A    between atoms: C11_13  and  C12_14
REMARK    8  A    between atoms: C12_14  and  C13_16
REMARK    9  A    between atoms: C14_17  and  C15_18
REMARK   10  A    between atoms: C17_20  and  O5_25
REMARK   11  A    between atoms: C18_21  and  O4_24
REMARK   12  A    between atoms: O5_25  and  C21_26
REMARK                            x       y       z     vdW  Elec       q    Type
REMARK                         _______ _______ _______ _____ _____    ______ ____
ROOT
ATOM      1  C11 UNL     1     -17.008  33.973  44.999  0.00  0.00    +0.000 C 
ENDROOT
BRANCH   1   2
ATOM      2  C10 UNL     1     -16.067  34.164  46.156  0.00  0.00    +0.000 C 
ATOM      3  O2  UNL     1     -15.459  33.166  46.628  0.00  0.00    +0.000 OA
BRANCH   2   5
ATOM      4  C8  UNL     1     -15.261  36.488  45.978  0.00  0.00    +0.000 C 
ATOM      5  C9  UNL     1     -15.833  35.516  46.699  0.00  0.00    +0.000 C 
BRANCH   4  11
ATOM      6  C2  UNL     1     -13.807  38.523  46.414  0.00  0.00    +0.000 A 
ATOM      7  C3  UNL     1     -13.683  39.824  46.945  0.00  0.00    +0.000 A 
ATOM      8  C4  UNL     1     -14.786  40.465  47.523  0.00  0.00    +0.000 A 
ATOM      9  C5  UNL     1     -16.021  39.816  47.571  0.00  0.00    +0.000 A 
ATOM     10  C6  UNL     1     -16.155  38.526  47.058  0.00  0.00    +0.000 A 
ATOM     11  C7  UNL     1     -15.053  37.858  46.500  0.00  0.00    +0.000 A 
BRANCH   6  13
ATOM     12  C1  UNL     1     -11.744  37.100  46.436  0.00  0.00    +0.000 C 
ATOM     13  O1  UNL     1     -12.729  37.887  45.776  0.00  0.00    +0.000 OA
ENDBRANCH   6  13
BRANCH   8  14
ATOM     14  O6  UNL     1     -14.665  41.751  48.045  0.00  0.00    +0.000 OA
ATOM     15  H20 UNL     1     -15.019  41.986  48.966  0.00  0.00    +0.000 HD
ENDBRANCH   8  14
ENDBRANCH   4  11
ENDBRANCH   2   5
ENDBRANCH   1   2
BRANCH   1  16
ATOM     16  C12 UNL     1     -16.577  32.850  44.083  0.00  0.00    +0.000 C 
ATOM     17  O3  UNL     1     -17.027  31.686  44.258  0.00  0.00    +0.000 OA
BRANCH  16  18
ATOM     18  C13 UNL     1     -15.629  33.069  42.969  0.00  0.00    +0.000 C 
ATOM     19  C14 UNL     1     -15.030  34.246  42.729  0.00  0.00    +0.000 C 
BRANCH  19  20
ATOM     20  C15 UNL     1     -14.070  34.465  41.620  0.00  0.00    +0.000 A 
ATOM     21  C16 UNL     1     -13.753  33.458  40.684  0.00  0.00    +0.000 A 
ATOM     22  C17 UNL     1     -12.843  33.711  39.639  0.00  0.00    +0.000 A 
ATOM     23  C18 UNL     1     -12.259  34.981  39.526  0.00  0.00    +0.000 A 
ATOM     24  C19 UNL     1     -12.586  35.987  40.442  0.00  0.00    +0.000 A 
ATOM     25  C20 UNL     1     -13.488  35.733  41.477  0.00  0.00    +0.000 A 
BRANCH  23  26
ATOM     26  O4  UNL     1     -11.357  35.235  38.495  0.00  0.00    +0.000 OA
ATOM     27  H16 UNL     1     -10.355  35.247  38.657  0.00  0.00    +0.000 HD
ENDBRANCH  23  26
BRANCH  22  28
ATOM     28  O5  UNL     1     -12.497  32.733  38.693  0.00  0.00    +0.000 OA
ATOM     29  C21 UNL     1     -13.430  32.042  37.868  0.00  0.00    +0.000 C 
ENDBRANCH  22  28
ENDBRANCH  19  20
ENDBRANCH  16  18
ENDBRANCH   1  16
TORSDOF 10
ENDMDL
MODEL 3
REMARK VINA RESULT:      -4.1      2.171      5.768
REMARK  Name = .\curcumin.pdb
REMARK  12 active torsions:
REMARK  status: ('A' for Active; 'I' for Inactive)
REMARK    1  A    between atoms: C1_1  and  O1_2
REMARK    2  A    between atoms: O1_2  and  C2_3
REMARK    3  A    between atoms: C4_5  and  O6_27
REMARK    4  A    between atoms: C7_8  and  C8_9
REMARK    5  A    between atoms: C9_10  and  C10_11
REMARK    6  A    between atoms: C10_11  and  C11_13
REMARK    7  A    between atoms: C11_13  and  C12_14
REMARK    8  A    between atoms: C12_14  and  C13_16
REMARK    9  A    between atoms: C14_17  and  C15_18
REMARK   10  A    between atoms: C17_20  and  O5_25
REMARK   11  A    between atoms: C18_21  and  O4_24
REMARK   12  A    between atoms: O5_25  and  C21_26
REMARK                            x       y       z     vdW  Elec       q    Type
REMARK                         _______ _______ _______ _____ _____    ______ ____
ROOT
ATOM      1  C11 UNL     1     -11.054  39.542  46.462  0.00  0.00    +0.000 C 
ENDROOT
BRANCH   1   2
ATOM      2  C10 UNL     1     -10.961  38.478  47.520  0.00  0.00    +0.000 C 
ATOM      3  O2  UNL     1      -9.962  38.458  48.289  0.00  0.00    +0.000 OA
BRANCH   2   5
ATOM      4  C8  UNL     1     -11.830  36.175  47.670  0.00  0.00    +0.000 C 
ATOM      5  C9  UNL     1     -12.051  37.496  47.676  0.00  0.00    +0.000 C 
BRANCH   4  11
ATOM      6  C2  UNL     1     -12.649  33.826  48.177  0.00  0.00    +0.000 A 
ATOM      7  C3  UNL     1     -13.730  32.934  48.333  0.00  0.00    +0.000 A 
ATOM      8  C4  UNL     1     -15.049  33.386  48.209  0.00  0.00    +0.000 A 
ATOM      9  C5  UNL     1     -15.300  34.732  47.935  0.00  0.00    +0.000 A 
ATOM     10  C6  UNL     1     -14.240  35.623  47.769  0.00  0.00    +0.000 A 
ATOM     11  C7  UNL     1     -12.910  35.181  47.862  0.00  0.00    +0.000 A 
BRANCH   6  13
ATOM     12  C1  UNL     1     -10.820  32.120  47.999  0.00  0.00    +0.000 C 
ATOM     13  O1  UNL     1     -11.320  33.404  48.357  0.00  0.00    +0.000 OA
ENDBRANCH   6  13
BRANCH   8  14
ATOM     14  O6  UNL     1     -16.119  32.507  48.367  0.00  0.00    +0.000 OA
ATOM     15  H20 UNL     1     -16.228  31.692  47.774  0.00  0.00    +0.000 HD
ENDBRANCH   8  14
ENDBRANCH   4  11
ENDBRANCH   2   5
ENDBRANCH   1   2
BRANCH   1  16
ATOM     16  C12 UNL     1     -12.204  39.308  45.509  0.00  0.00    +0.000 C 
ATOM     17  O3  UNL     1     -13.313  39.871  45.709  0.00  0.00    +0.000 OA
BRANCH  16  18
ATOM     18  C13 UNL     1     -12.074  38.428  44.327  0.00  0.00    +0.000 C 
ATOM     19  C14 UNL     1     -13.116  37.817  43.743  0.00  0.00    +0.000 C 
BRANCH  19  20
ATOM     20  C15 UNL     1     -12.990  36.944  42.551  0.00  0.00    +0.000 A 
ATOM     21  C16 UNL     1     -13.769  35.781  42.379  0.00  0.00    +0.000 A 
ATOM     22  C17 UNL     1     -13.626  34.985  41.226  0.00  0.00    +0.000 A 
ATOM     23  C18 UNL     1     -12.706  35.364  40.238  0.00  0.00    +0.000 A 
ATOM     24  C19 UNL     1     -11.945  36.527  40.397  0.00  0.00    +0.000 A 
ATOM     25  C20 UNL     1     -12.090  37.314  41.541  0.00  0.00    +0.000 A 
BRANCH  23  26
ATOM     26  O4  UNL     1     -12.559  34.578  39.096  0.00  0.00    +0.000 OA
ATOM     27  H16 UNL     1     -12.090  34.928  38.267  0.00  0.00    +0.000 HD
ENDBRANCH  23  26
BRANCH  22  28
ATOM     28  O5  UNL     1     -14.378  33.816  41.023  0.00  0.00    +0.000 OA
ATOM     29  C21 UNL     1     -14.423  32.718  41.928  0.00  0.00    +0.000 C 
ENDBRANCH  22  28
ENDBRANCH  19  20
ENDBRANCH  16  18
ENDBRANCH   1  16
TORSDOF 10
ENDMDL
MODEL 4
REMARK VINA RESULT:      -3.8      1.369      2.011
REMARK  Name = .\curcumin.pdb
REMARK  12 active torsions:
REMARK  status: ('A' for Active; 'I' for Inactive)
REMARK    1  A    between atoms: C1_1  and  O1_2
REMARK    2  A    between atoms: O1_2  and  C2_3
REMARK    3  A    between atoms: C4_5  and  O6_27
REMARK    4  A    between atoms: C7_8  and  C8_9
REMARK    5  A    between atoms: C9_10  and  C10_11
REMARK    6  A    between atoms: C10_11  and  C11_13
REMARK    7  A    between atoms: C11_13  and  C12_14
REMARK    8  A    between atoms: C12_14  and  C13_16
REMARK    9  A    between atoms: C14_17  and  C15_18
REMARK   10  A    between atoms: C17_20  and  O5_25
REMARK   11  A    between atoms: C18_21  and  O4_24
REMARK   12  A    between atoms: O5_25  and  C21_26
REMARK                            x       y       z     vdW  Elec       q    Type
REMARK                         _______ _______ _______ _____ _____    ______ ____
ROOT
ATOM      1  C11 UNL     1     -16.763  34.288  45.720  0.00  0.00    +0.000 C 
ENDROOT
BRANCH   1   2
ATOM      2  C10 UNL     1     -15.789  34.208  46.862  0.00  0.00    +0.000 C 
ATOM      3  O2  UNL     1     -15.743  33.160  47.562  0.00  0.00    +0.000 OA
BRANCH   2   5
ATOM      4  C8  UNL     1     -14.760  36.377  46.299  0.00  0.00    +0.000 C 
ATOM      5  C9  UNL     1     -14.871  35.332  47.129  0.00  0.00    +0.000 C 
BRANCH   4  11
ATOM      6  C2  UNL     1     -12.867  37.946  45.667  0.00  0.00    +0.000 A 
ATOM      7  C3  UNL     1     -12.049  39.044  46.004  0.00  0.00    +0.000 A 
ATOM      8  C4  UNL     1     -12.244  39.735  47.206  0.00  0.00    +0.000 A 
ATOM      9  C5  UNL     1     -13.259  39.340  48.078  0.00  0.00    +0.000 A 
ATOM     10  C6  UNL     1     -14.070  38.249  47.762  0.00  0.00    +0.000 A 
ATOM     11  C7  UNL     1     -13.870  37.528  46.574  0.00  0.00    +0.000 A 
BRANCH   6  13
ATOM     12  C1  UNL     1     -13.554  37.490  43.300  0.00  0.00    +0.000 C 
ATOM     13  O1  UNL     1     -12.726  37.278  44.439  0.00  0.00    +0.000 OA
ENDBRANCH   6  13
BRANCH   8  14
ATOM     14  O6  UNL     1     -11.438  40.823  47.538  0.00  0.00    +0.000 OA
ATOM     15  H20 UNL     1     -10.630  41.075  46.982  0.00  0.00    +0.000 HD
ENDBRANCH   8  14
ENDBRANCH   4  11
ENDBRANCH   2   5
ENDBRANCH   1   2
BRANCH   1  16
ATOM     16  C12 UNL     1     -16.438  33.311  44.614  0.00  0.00    +0.000 C 
ATOM     17  O3  UNL     1     -17.047  32.211  44.545  0.00  0.00    +0.000 OA
BRANCH  16  18
ATOM     18  C13 UNL     1     -15.412  33.603  43.589  0.00  0.00    +0.000 C 
ATOM     19  C14 UNL     1     -15.036  32.721  42.649  0.00  0.00    +0.000 C 
BRANCH  19  20
ATOM     20  C15 UNL     1     -14.016  33.015  41.612  0.00  0.00    +0.000 A 
ATOM     21  C16 UNL     1     -13.718  34.329  41.195  0.00  0.00    +0.000 A 
ATOM     22  C17 UNL     1     -12.734  34.565  40.215  0.00  0.00    +0.000 A 
ATOM     23  C18 UNL     1     -12.040  33.480  39.661  0.00  0.00    +0.000 A 
ATOM     24  C19 UNL     1     -12.320  32.177  40.086  0.00  0.00    +0.000 A 
ATOM     25  C20 UNL     1     -13.295  31.947  41.058  0.00  0.00    +0.000 A 
BRANCH  23  26
ATOM     26  O4  UNL     1     -11.067  33.708  38.690  0.00  0.00    +0.000 OA
ATOM     27  H16 UNL     1     -10.082  33.552  38.877  0.00  0.00    +0.000 HD
ENDBRANCH  23  26
BRANCH  22  28
ATOM     28  O5  UNL     1     -12.415  35.858  39.769  0.00  0.00    +0.000 OA
ATOM     29  C21 UNL     1     -11.548  36.757  40.454  0.00  0.00    +0.000 C 
ENDBRANCH  22  28
ENDBRANCH  19  20
ENDBRANCH  16  18
ENDBRANCH   1  16
TORSDOF 10
ENDMDL
MODEL 5
REMARK VINA RESULT:      -3.4      2.171      6.933
REMARK  Name = .\curcumin.pdb
REMARK  12 active torsions:
REMARK  status: ('A' for Active; 'I' for Inactive)
REMARK    1  A    between atoms: C1_1  and  O1_2
REMARK    2  A    between atoms: O1_2  and  C2_3
REMARK    3  A    between atoms: C4_5  and  O6_27
REMARK    4  A    between atoms: C7_8  and  C8_9
REMARK    5  A    between atoms: C9_10  and  C10_11
REMARK    6  A    between atoms: C10_11  and  C11_13
REMARK    7  A    between atoms: C11_13  and  C12_14
REMARK    8  A    between atoms: C12_14  and  C13_16
REMARK    9  A    between atoms: C14_17  and  C15_18
REMARK   10  A    between atoms: C17_20  and  O5_25
REMARK   11  A    between atoms: C18_21  and  O4_24
REMARK   12  A    between atoms: O5_25  and  C21_26
REMARK                            x       y       z     vdW  Elec       q    Type
REMARK                         _______ _______ _______ _____ _____    ______ ____
ROOT
ATOM      1  C11 UNL     1     -17.047  33.041  42.733  0.00  0.00    +0.000 C 
ENDROOT
BRANCH   1   2
ATOM      2  C10 UNL     1     -16.352  32.468  41.530  0.00  0.00    +0.000 C 
ATOM      3  O2  UNL     1     -17.032  32.145  40.519  0.00  0.00    +0.000 OA
BRANCH   2   5
ATOM      4  C8  UNL     1     -14.097  33.045  40.713  0.00  0.00    +0.000 C 
ATOM      5  C9  UNL     1     -14.882  32.326  41.526  0.00  0.00    +0.000 C 
BRANCH   4  11
ATOM      6  C2  UNL     1     -11.781  33.943  40.189  0.00  0.00    +0.000 A 
ATOM      7  C3  UNL     1     -10.382  33.764  40.226  0.00  0.00    +0.000 A 
ATOM      8  C4  UNL     1      -9.825  32.622  40.815  0.00  0.00    +0.000 A 
ATOM      9  C5  UNL     1     -10.659  31.653  41.376  0.00  0.00    +0.000 A 
ATOM     10  C6  UNL     1     -12.044  31.812  41.337  0.00  0.00    +0.000 A 
ATOM     11  C7  UNL     1     -12.620  32.937  40.726  0.00  0.00    +0.000 A 
BRANCH   6  13
ATOM     12  C1  UNL     1     -12.204  36.413  40.207  0.00  0.00    +0.000 C 
ATOM     13  O1  UNL     1     -12.356  35.109  39.657  0.00  0.00    +0.000 OA
ENDBRANCH   6  13
BRANCH   8  14
ATOM     14  O6  UNL     1      -8.444  32.447  40.855  0.00  0.00    +0.000 OA
ATOM     15  H20 UNL     1      -7.819  33.022  40.303  0.00  0.00    +0.000 HD
ENDBRANCH   8  14
ENDBRANCH   4  11
ENDBRANCH   2   5
ENDBRANCH   1   2
BRANCH   1  16
ATOM     16  C12 UNL     1     -16.203  32.956  43.983  0.00  0.00    +0.000 C 
ATOM     17  O3  UNL     1     -16.045  31.847  44.562  0.00  0.00    +0.000 OA
BRANCH  16  18
ATOM     18  C13 UNL     1     -15.542  34.144  44.565  0.00  0.00    +0.000 C 
ATOM     19  C14 UNL     1     -15.235  35.240  43.854  0.00  0.00    +0.000 C 
BRANCH  19  20
ATOM     20  C15 UNL     1     -14.583  36.439  44.438  0.00  0.00    +0.000 A 
ATOM     21  C16 UNL     1     -14.993  37.000  45.664  0.00  0.00    +0.000 A 
ATOM     22  C17 UNL     1     -14.340  38.133  46.189  0.00  0.00    +0.000 A 
ATOM     23  C18 UNL     1     -13.266  38.695  45.486  0.00  0.00    +0.000 A 
ATOM     24  C19 UNL     1     -12.845  38.130  44.277  0.00  0.00    +0.000 A 
ATOM     25  C20 UNL     1     -13.494  37.007  43.761  0.00  0.00    +0.000 A 
BRANCH  23  26
ATOM     26  O4  UNL     1     -12.618  39.818  45.999  0.00  0.00    +0.000 OA
ATOM     27  H16 UNL     1     -12.242  39.829  46.941  0.00  0.00    +0.000 HD
ENDBRANCH  23  26
BRANCH  22  28
ATOM     28  O5  UNL     1     -14.725  38.725  47.403  0.00  0.00    +0.000 OA
ATOM     29  C21 UNL     1     -15.083  40.094  47.556  0.00  0.00    +0.000 C 
ENDBRANCH  22  28
ENDBRANCH  19  20
ENDBRANCH  16  18
ENDBRANCH   1  16
TORSDOF 10
ENDMDL
MODEL 6
REMARK VINA RESULT:      -2.8      1.727      5.278
REMARK  Name = .\curcumin.pdb
REMARK  12 active torsions:
REMARK  status: ('A' for Active; 'I' for Inactive)
REMARK    1  A    between atoms: C1_1  and  O1_2
REMARK    2  A    between atoms: O1_2  and  C2_3
REMARK    3  A    between atoms: C4_5  and  O6_27
REMARK    4  A    between atoms: C7_8  and  C8_9
REMARK    5  A    between atoms: C9_10  and  C10_11
REMARK    6  A    between atoms: C10_11  and  C11_13
REMARK    7  A    between atoms: C11_13  and  C12_14
REMARK    8  A    between atoms: C12_14  and  C13_16
REMARK    9  A    between atoms: C14_17  and  C15_18
REMARK   10  A    between atoms: C17_20  and  O5_25
REMARK   11  A    between atoms: C18_21  and  O4_24
REMARK   12  A    between atoms: O5_25  and  C21_26
REMARK                            x       y       z     vdW  Elec       q    Type
REMARK                         _______ _______ _______ _____ _____    ______ ____
ROOT
ATOM      1  C11 UNL     1     -11.045  39.719  46.536  0.00  0.00    +0.000 C 
ENDROOT
BRANCH   1   2
ATOM      2  C10 UNL     1     -11.069  38.582  47.518  0.00  0.00    +0.000 C 
ATOM      3  O2  UNL     1     -10.031  38.319  48.183  0.00  0.00    +0.000 OA
BRANCH   2   5
ATOM      4  C8  UNL     1     -12.452  36.552  47.296  0.00  0.00    +0.000 C 
ATOM      5  C9  UNL     1     -12.311  37.813  47.725  0.00  0.00    +0.000 C 
BRANCH   4  11
ATOM      6  C2  UNL     1     -14.967  36.229  47.180  0.00  0.00    +0.000 A 
ATOM      7  C3  UNL     1     -16.092  35.421  47.444  0.00  0.00    +0.000 A 
ATOM      8  C4  UNL     1     -15.938  34.152  48.018  0.00  0.00    +0.000 A 
ATOM      9  C5  UNL     1     -14.661  33.680  48.326  0.00  0.00    +0.000 A 
ATOM     10  C6  UNL     1     -13.541  34.473  48.079  0.00  0.00    +0.000 A 
ATOM     11  C7  UNL     1     -13.679  35.758  47.530  0.00  0.00    +0.000 A 
BRANCH   6  13
ATOM     12  C1  UNL     1     -15.644  38.643  47.158  0.00  0.00    +0.000 C 
ATOM     13  O1  UNL     1     -15.096  37.478  46.549  0.00  0.00    +0.000 OA
ENDBRANCH   6  13
BRANCH   8  14
ATOM     14  O6  UNL     1     -17.048  33.351  48.277  0.00  0.00    +0.000 OA
ATOM     15  H20 UNL     1     -17.372  33.182  49.222  0.00  0.00    +0.000 HD
ENDBRANCH   8  14
ENDBRANCH   4  11
ENDBRANCH   2   5
ENDBRANCH   1   2
BRANCH   1  16
ATOM     16  C12 UNL     1     -12.167  39.635  45.527  0.00  0.00    +0.000 C 
ATOM     17  O3  UNL     1     -13.211  40.323  45.686  0.00  0.00    +0.000 OA
BRANCH  16  18
ATOM     18  C13 UNL     1     -12.087  38.758  44.338  0.00  0.00    +0.000 C 
ATOM     19  C14 UNL     1     -13.082  37.944  43.953  0.00  0.00    +0.000 C 
BRANCH  19  20
ATOM     20  C15 UNL     1     -13.008  37.073  42.754  0.00  0.00    +0.000 A 
ATOM     21  C16 UNL     1     -13.799  35.914  42.611  0.00  0.00    +0.000 A 
ATOM     22  C17 UNL     1     -13.706  35.120  41.451  0.00  0.00    +0.000 A 
ATOM     23  C18 UNL     1     -12.826  35.498  40.428  0.00  0.00    +0.000 A 
ATOM     24  C19 UNL     1     -12.054  36.658  40.558  0.00  0.00    +0.000 A 
ATOM     25  C20 UNL     1     -12.149  37.442  41.709  0.00  0.00    +0.000 A 
BRANCH  23  26
ATOM     26  O4  UNL     1     -12.729  34.715  39.279  0.00  0.00    +0.000 OA
ATOM     27  H16 UNL     1     -13.548  34.301  38.847  0.00  0.00    +0.000 HD
ENDBRANCH  23  26
BRANCH  22  28
ATOM     28  O5  UNL     1     -14.471  33.956  41.276  0.00  0.00    +0.000 OA
ATOM     29  C21 UNL     1     -14.965  33.147  42.339  0.00  0.00    +0.000 C 
ENDBRANCH  22  28
ENDBRANCH  19  20
ENDBRANCH  16  18
ENDBRANCH   1  16
TORSDOF 10
ENDMDL
MODEL 7
REMARK VINA RESULT:      -2.1      1.744      7.320
REMARK  Name = .\curcumin.pdb
REMARK  12 active torsions:
REMARK  status: ('A' for Active; 'I' for Inactive)
REMARK    1  A    between atoms: C1_1  and  O1_2
REMARK    2  A    between atoms: O1_2  and  C2_3
REMARK    3  A    between atoms: C4_5  and  O6_27
REMARK    4  A    between atoms: C7_8  and  C8_9
REMARK    5  A    between atoms: C9_10  and  C10_11
REMARK    6  A    between atoms: C10_11  and  C11_13
REMARK    7  A    between atoms: C11_13  and  C12_14
REMARK    8  A    between atoms: C12_14  and  C13_16
REMARK    9  A    between atoms: C14_17  and  C15_18
REMARK   10  A    between atoms: C17_20  and  O5_25
REMARK   11  A    between atoms: C18_21  and  O4_24
REMARK   12  A    between atoms: O5_25  and  C21_26
REMARK                            x       y       z     vdW  Elec       q    Type
REMARK                         _______ _______ _______ _____ _____    ______ ____
ROOT
ATOM      1  C11 UNL     1     -11.859  35.240  40.493  0.00  0.00    +0.000 C 
ENDROOT
BRANCH   1   2
ATOM      2  C10 UNL     1     -13.146  34.491  40.289  0.00  0.00    +0.000 C 
ATOM      3  O2  UNL     1     -13.635  34.409  39.130  0.00  0.00    +0.000 OA
BRANCH   2   5
ATOM      4  C8  UNL     1     -14.416  34.514  42.403  0.00  0.00    +0.000 C 
ATOM      5  C9  UNL     1     -13.802  33.826  41.432  0.00  0.00    +0.000 C 
BRANCH   4  11
ATOM      6  C2  UNL     1     -15.602  34.581  44.647  0.00  0.00    +0.000 A 
ATOM      7  C3  UNL     1     -16.240  33.885  45.694  0.00  0.00    +0.000 A 
ATOM      8  C4  UNL     1     -16.414  32.497  45.624  0.00  0.00    +0.000 A 
ATOM      9  C5  UNL     1     -15.958  31.795  44.507  0.00  0.00    +0.000 A 
ATOM     10  C6  UNL     1     -15.316  32.470  43.468  0.00  0.00    +0.000 A 
ATOM     11  C7  UNL     1     -15.109  33.857  43.535  0.00  0.00    +0.000 A 
BRANCH   6  13
ATOM     12  C1  UNL     1     -15.329  36.763  45.852  0.00  0.00    +0.000 C 
ATOM     13  O1  UNL     1     -15.472  35.980  44.671  0.00  0.00    +0.000 OA
ENDBRANCH   6  13
BRANCH   8  14
ATOM     14  O6  UNL     1     -17.048  31.808  46.656  0.00  0.00    +0.000 OA
ATOM     15  H20 UNL     1     -17.685  32.272  47.292  0.00  0.00    +0.000 HD
ENDBRANCH   8  14
ENDBRANCH   4  11
ENDBRANCH   2   5
ENDBRANCH   1   2
BRANCH   1  16
ATOM     16  C12 UNL     1     -12.086  36.667  40.937  0.00  0.00    +0.000 C 
ATOM     17  O3  UNL     1     -12.521  37.520  40.117  0.00  0.00    +0.000 OA
BRANCH  16  18
ATOM     18  C13 UNL     1     -11.812  37.110  42.321  0.00  0.00    +0.000 C 
ATOM     19  C14 UNL     1     -12.550  38.030  42.962  0.00  0.00    +0.000 C 
BRANCH  19  20
ATOM     20  C15 UNL     1     -12.285  38.467  44.355  0.00  0.00    +0.000 A 
ATOM     21  C16 UNL     1     -11.968  37.558  45.385  0.00  0.00    +0.000 A 
ATOM     22  C17 UNL     1     -11.712  38.016  46.693  0.00  0.00    +0.000 A 
ATOM     23  C18 UNL     1     -11.764  39.390  46.963  0.00  0.00    +0.000 A 
ATOM     24  C19 UNL     1     -12.059  40.296  45.939  0.00  0.00    +0.000 A 
ATOM     25  C20 UNL     1     -12.312  39.839  44.644  0.00  0.00    +0.000 A 
BRANCH  23  26
ATOM     26  O4  UNL     1     -11.514  39.848  48.255  0.00  0.00    +0.000 OA
ATOM     27  H16 UNL     1     -12.208  40.374  48.776  0.00  0.00    +0.000 HD
ENDBRANCH  23  26
BRANCH  22  28
ATOM     28  O5  UNL     1     -11.401  37.141  47.746  0.00  0.00    +0.000 OA
ATOM     29  C21 UNL     1     -11.303  35.726  47.618  0.00  0.00    +0.000 C 
ENDBRANCH  22  28
ENDBRANCH  19  20
ENDBRANCH  16  18
ENDBRANCH   1  16
TORSDOF 10
ENDMDL
MODEL 8
REMARK VINA RESULT:      -1.9      1.791      8.004
REMARK  Name = .\curcumin.pdb
REMARK  12 active torsions:
REMARK  status: ('A' for Active; 'I' for Inactive)
REMARK    1  A    between atoms: C1_1  and  O1_2
REMARK    2  A    between atoms: O1_2  and  C2_3
REMARK    3  A    between atoms: C4_5  and  O6_27
REMARK    4  A    between atoms: C7_8  and  C8_9
REMARK    5  A    between atoms: C9_10  and  C10_11
REMARK    6  A    between atoms: C10_11  and  C11_13
REMARK    7  A    between atoms: C11_13  and  C12_14
REMARK    8  A    between atoms: C12_14  and  C13_16
REMARK    9  A    between atoms: C14_17  and  C15_18
REMARK   10  A    between atoms: C17_20  and  O5_25
REMARK   11  A    between atoms: C18_21  and  O4_24
REMARK   12  A    between atoms: O5_25  and  C21_26
REMARK                            x       y       z     vdW  Elec       q    Type
REMARK                         _______ _______ _______ _____ _____    ______ ____
ROOT
ATOM      1  C11 UNL     1     -11.042  36.191  39.886  0.00  0.00    +0.000 C 
ENDROOT
BRANCH   1   2
ATOM      2  C10 UNL     1     -11.707  34.976  39.304  0.00  0.00    +0.000 C 
ATOM      3  O2  UNL     1     -11.476  34.660  38.106  0.00  0.00    +0.000 OA
BRANCH   2   5
ATOM      4  C8  UNL     1     -13.495  34.676  40.975  0.00  0.00    +0.000 C 
ATOM      5  C9  UNL     1     -12.590  34.144  40.145  0.00  0.00    +0.000 C 
BRANCH   4  11
ATOM      6  C2  UNL     1     -14.670  32.490  41.511  0.00  0.00    +0.000 A 
ATOM      7  C3  UNL     1     -15.564  31.772  42.332  0.00  0.00    +0.000 A 
ATOM      8  C4  UNL     1     -16.165  32.386  43.437  0.00  0.00    +0.000 A 
ATOM      9  C5  UNL     1     -15.876  33.719  43.734  0.00  0.00    +0.000 A 
ATOM     10  C6  UNL     1     -15.001  34.444  42.925  0.00  0.00    +0.000 A 
ATOM     11  C7  UNL     1     -14.411  33.851  41.797  0.00  0.00    +0.000 A 
BRANCH   6  13
ATOM     12  C1  UNL     1     -14.582  31.653  39.150  0.00  0.00    +0.000 C 
ATOM     13  O1  UNL     1     -14.010  31.874  40.435  0.00  0.00    +0.000 OA
ENDBRANCH   6  13
BRANCH   8  14
ATOM     14  O6  UNL     1     -17.046  31.677  44.252  0.00  0.00    +0.000 OA
ATOM     15  H20 UNL     1     -16.721  31.152  45.055  0.00  0.00    +0.000 HD
ENDBRANCH   8  14
ENDBRANCH   4  11
ENDBRANCH   2   5
ENDBRANCH   1   2
BRANCH   1  16
ATOM     16  C12 UNL     1     -12.020  37.104  40.590  0.00  0.00    +0.000 C 
ATOM     17  O3  UNL     1     -12.718  37.913  39.923  0.00  0.00    +0.000 OA
BRANCH  16  18
ATOM     18  C13 UNL     1     -12.192  37.083  42.059  0.00  0.00    +0.000 C 
ATOM     19  C14 UNL     1     -12.970  37.952  42.724  0.00  0.00    +0.000 C 
BRANCH  19  20
ATOM     20  C15 UNL     1     -13.153  37.926  44.196  0.00  0.00    +0.000 A 
ATOM     21  C16 UNL     1     -12.382  38.720  45.068  0.00  0.00    +0.000 A 
ATOM     22  C17 UNL     1     -12.596  38.673  46.460  0.00  0.00    +0.000 A 
ATOM     23  C18 UNL     1     -13.595  37.835  46.975  0.00  0.00    +0.000 A 
ATOM     24  C19 UNL     1     -14.375  37.059  46.110  0.00  0.00    +0.000 A 
ATOM     25  C20 UNL     1     -14.160  37.109  44.731  0.00  0.00    +0.000 A 
BRANCH  23  26
ATOM     26  O4  UNL     1     -13.809  37.783  48.351  0.00  0.00    +0.000 OA
ATOM     27  H16 UNL     1     -14.463  37.126  48.762  0.00  0.00    +0.000 HD
ENDBRANCH  23  26
BRANCH  22  28
ATOM     28  O5  UNL     1     -11.843  39.444  47.361  0.00  0.00    +0.000 OA
ATOM     29  C21 UNL     1     -10.549  39.091  47.839  0.00  0.00    +0.000 C 
ENDBRANCH  22  28
ENDBRANCH  19  20
ENDBRANCH  16  18
ENDBRANCH   1  16
TORSDOF 10
ENDMDL
