MODEL 1
REMARK VINA RESULT:      -4.7      0.000      0.000
REMARK  Name = .\curcumin.pdb
REMARK  12 active torsions:
REMARK  status: ('A' for Active; 'I' for Inactive)
REMARK    1  A    between atoms: C1_1  and  O1_2
REMARK    2  A    between atoms: O1_2  and  C2_3
REMARK    3  A    between atoms: C4_5  and  O6_27
REMARK    4  A    between atoms: C7_8  and  C8_9
REMARK    5  A    between atoms: C9_10  and  C10_11
REMARK    6  A    between atoms: C10_11  and  C11_13
REMARK    7  A    between atoms: C11_13  and  C12_14
REMARK    8  A    between atoms: C12_14  and  C13_16
REMARK    9  A    between atoms: C14_17  and  C15_18
REMARK   10  A    between atoms: C17_20  and  O5_25
REMARK   11  A    between atoms: C18_21  and  O4_24
REMARK   12  A    between atoms: O5_25  and  C21_26
REMARK                            x       y       z     vdW  Elec       q    Type
REMARK                         _______ _______ _______ _____ _____    ______ ____
ROOT
ATOM      1  C11 UNL     1     -16.202  67.260 -13.365  0.00  0.00    +0.000 C 
ENDROOT
BRANCH   1   2
ATOM      2  C10 UNL     1     -14.741  67.605 -13.419  0.00  0.00    +0.000 C 
ATOM      3  O2  UNL     1     -13.923  66.937 -12.732  0.00  0.00    +0.000 OA
BRANCH   2   5
ATOM      4  C8  UNL     1     -13.313  69.550 -13.933  0.00  0.00    +0.000 C 
ATOM      5  C9  UNL     1     -14.272  68.691 -14.302  0.00  0.00    +0.000 C 
BRANCH   4  11
ATOM      6  C2  UNL     1     -11.687  70.441 -15.666  0.00  0.00    +0.000 A 
ATOM      7  C3  UNL     1     -11.258  71.511 -16.478  0.00  0.00    +0.000 A 
ATOM      8  C4  UNL     1     -11.951  72.728 -16.477  0.00  0.00    +0.000 A 
ATOM      9  C5  UNL     1     -13.079  72.885 -15.671  0.00  0.00    +0.000 A 
ATOM     10  C6  UNL     1     -13.509  71.837 -14.855  0.00  0.00    +0.000 A 
ATOM     11  C7  UNL     1     -12.809  70.620 -14.823  0.00  0.00    +0.000 A 
BRANCH   6  13
ATOM     12  C1  UNL     1      -9.630  69.007 -15.661  0.00  0.00    +0.000 C 
ATOM     13  O1  UNL     1     -11.041  69.194 -15.699  0.00  0.00    +0.000 OA
ENDBRANCH   6  13
BRANCH   8  14
ATOM     14  O6  UNL     1     -11.530  73.786 -17.281  0.00  0.00    +0.000 OA
ATOM     15  H20 UNL     1     -11.312  73.653 -18.262  0.00  0.00    +0.000 HD
ENDBRANCH   8  14
ENDBRANCH   4  11
ENDBRANCH   2   5
ENDBRANCH   1   2
BRANCH   1  16
ATOM     16  C12 UNL     1     -16.949  68.070 -12.331  0.00  0.00    +0.000 C 
ATOM     17  O3  UNL     1     -17.562  67.488 -11.396  0.00  0.00    +0.000 OA
BRANCH  16  18
ATOM     18  C13 UNL     1     -16.990  69.548 -12.374  0.00  0.00    +0.000 C 
ATOM     19  C14 UNL     1     -16.152  70.331 -11.677  0.00  0.00    +0.000 C 
BRANCH  19  20
ATOM     20  C15 UNL     1     -16.183  71.813 -11.728  0.00  0.00    +0.000 A 
ATOM     21  C16 UNL     1     -15.017  72.598 -11.615  0.00  0.00    +0.000 A 
ATOM     22  C17 UNL     1     -15.089  74.004 -11.680  0.00  0.00    +0.000 A 
ATOM     23  C18 UNL     1     -16.333  74.621 -11.870  0.00  0.00    +0.000 A 
ATOM     24  C19 UNL     1     -17.490  73.844 -12.001  0.00  0.00    +0.000 A 
ATOM     25  C20 UNL     1     -17.414  72.451 -11.937  0.00  0.00    +0.000 A 
BRANCH  23  26
ATOM     26  O4  UNL     1     -16.410  76.011 -11.933  0.00  0.00    +0.000 OA
ATOM     27  H16 UNL     1     -15.944  76.537 -12.664  0.00  0.00    +0.000 HD
ENDBRANCH  23  26
BRANCH  22  28
ATOM     28  O5  UNL     1     -13.951  74.819 -11.564  0.00  0.00    +0.000 OA
ATOM     29  C21 UNL     1     -13.317  75.479 -12.655  0.00  0.00    +0.000 C 
ENDBRANCH  22  28
ENDBRANCH  19  20
ENDBRANCH  16  18
ENDBRANCH   1  16
TORSDOF 10
ENDMDL
MODEL 2
REMARK VINA RESULT:      -4.0      1.840      6.625
REMARK  Name = .\curcumin.pdb
REMARK  12 active torsions:
REMARK  status: ('A' for Active; 'I' for Inactive)
REMARK    1  A    between atoms: C1_1  and  O1_2
REMARK    2  A    between atoms: O1_2  and  C2_3
REMARK    3  A    between atoms: C4_5  and  O6_27
REMARK    4  A    between atoms: C7_8  and  C8_9
REMARK    5  A    between atoms: C9_10  and  C10_11
REMARK    6  A    between atoms: C10_11  and  C11_13
REMARK    7  A    between atoms: C11_13  and  C12_14
REMARK    8  A    between atoms: C12_14  and  C13_16
REMARK    9  A    between atoms: C14_17  and  C15_18
REMARK   10  A    between atoms: C17_20  and  O5_25
REMARK   11  A    between atoms: C18_21  and  O4_24
REMARK   12  A    between atoms: O5_25  and  C21_26
REMARK                            x       y       z     vdW  Elec       q    Type
REMARK                         _______ _______ _______ _____ _____    ______ ____
ROOT
ATOM      1  C11 UNL     1     -10.569  71.140 -16.840  0.00  0.00    +0.000 C 
ENDROOT
BRANCH   1   2
ATOM      2  C10 UNL     1     -11.704  72.121 -16.932  0.00  0.00    +0.000 C 
ATOM      3  O2  UNL     1     -12.363  72.204 -18.003  0.00  0.00    +0.000 OA
BRANCH   2   5
ATOM      4  C8  UNL     1     -13.249  73.555 -15.651  0.00  0.00    +0.000 C 
ATOM      5  C9  UNL     1     -12.061  72.947 -15.761  0.00  0.00    +0.000 C 
BRANCH   4  11
ATOM      6  C2  UNL     1     -14.486  73.854 -13.454  0.00  0.00    +0.000 A 
ATOM      7  C3  UNL     1     -14.817  74.680 -12.361  0.00  0.00    +0.000 A 
ATOM      8  C4  UNL     1     -14.285  75.971 -12.257  0.00  0.00    +0.000 A 
ATOM      9  C5  UNL     1     -13.415  76.445 -13.240  0.00  0.00    +0.000 A 
ATOM     10  C6  UNL     1     -13.086  75.642 -14.332  0.00  0.00    +0.000 A 
ATOM     11  C7  UNL     1     -13.633  74.355 -14.466  0.00  0.00    +0.000 A 
BRANCH   6  13
ATOM     12  C1  UNL     1     -14.831  71.552 -12.523  0.00  0.00    +0.000 C 
ATOM     13  O1  UNL     1     -14.961  72.534 -13.545  0.00  0.00    +0.000 OA
ENDBRANCH   6  13
BRANCH   8  14
ATOM     14  O6  UNL     1     -14.608  76.787 -11.175  0.00  0.00    +0.000 OA
ATOM     15  H20 UNL     1     -14.097  76.738 -10.301  0.00  0.00    +0.000 HD
ENDBRANCH   8  14
ENDBRANCH   4  11
ENDBRANCH   2   5
ENDBRANCH   1   2
BRANCH   1  16
ATOM     16  C12 UNL     1     -10.801  70.087 -15.781  0.00  0.00    +0.000 C 
ATOM     17  O3  UNL     1      -9.828  69.627 -15.125  0.00  0.00    +0.000 OA
BRANCH  16  18
ATOM     18  C13 UNL     1     -12.151  69.564 -15.478  0.00  0.00    +0.000 C 
ATOM     19  C14 UNL     1     -12.392  68.285 -15.151  0.00  0.00    +0.000 C 
BRANCH  19  20
ATOM     20  C15 UNL     1     -13.744  67.762 -14.836  0.00  0.00    +0.000 A 
ATOM     21  C16 UNL     1     -14.872  68.600 -14.720  0.00  0.00    +0.000 A 
ATOM     22  C17 UNL     1     -16.141  68.060 -14.430  0.00  0.00    +0.000 A 
ATOM     23  C18 UNL     1     -16.278  66.675 -14.266  0.00  0.00    +0.000 A 
ATOM     24  C19 UNL     1     -15.164  65.839 -14.398  0.00  0.00    +0.000 A 
ATOM     25  C20 UNL     1     -13.909  66.377 -14.687  0.00  0.00    +0.000 A 
BRANCH  23  26
ATOM     26  O4  UNL     1     -17.531  66.137 -13.977  0.00  0.00    +0.000 OA
ATOM     27  H16 UNL     1     -17.629  65.262 -13.473  0.00  0.00    +0.000 HD
ENDBRANCH  23  26
BRANCH  22  28
ATOM     28  O5  UNL     1     -17.285  68.864 -14.300  0.00  0.00    +0.000 OA
ATOM     29  C21 UNL     1     -17.522  69.763 -13.222  0.00  0.00    +0.000 C 
ENDBRANCH  22  28
ENDBRANCH  19  20
ENDBRANCH  16  18
ENDBRANCH   1  16
TORSDOF 10
ENDMDL
MODEL 3
REMARK VINA RESULT:      -3.8      1.441      6.873
REMARK  Name = .\curcumin.pdb
REMARK  12 active torsions:
REMARK  status: ('A' for Active; 'I' for Inactive)
REMARK    1  A    between atoms: C1_1  and  O1_2
REMARK    2  A    between atoms: O1_2  and  C2_3
REMARK    3  A    between atoms: C4_5  and  O6_27
REMARK    4  A    between atoms: C7_8  and  C8_9
REMARK    5  A    between atoms: C9_10  and  C10_11
REMARK    6  A    between atoms: C10_11  and  C11_13
REMARK    7  A    between atoms: C11_13  and  C12_14
REMARK    8  A    between atoms: C12_14  and  C13_16
REMARK    9  A    between atoms: C14_17  and  C15_18
REMARK   10  A    between atoms: C17_20  and  O5_25
REMARK   11  A    between atoms: C18_21  and  O4_24
REMARK   12  A    between atoms: O5_25  and  C21_26
REMARK                            x       y       z     vdW  Elec       q    Type
REMARK                         _______ _______ _______ _____ _____    ______ ____
ROOT
ATOM      1  C11 UNL     1     -11.732  71.213 -16.783  0.00  0.00    +0.000 C 
ENDROOT
BRANCH   1   2
ATOM      2  C10 UNL     1     -11.960  72.633 -16.348  0.00  0.00    +0.000 C 
ATOM      3  O2  UNL     1     -11.203  73.542 -16.783  0.00  0.00    +0.000 OA
BRANCH   2   5
ATOM      4  C8  UNL     1     -13.010  73.923 -14.526  0.00  0.00    +0.000 C 
ATOM      5  C9  UNL     1     -13.087  72.958 -15.451  0.00  0.00    +0.000 C 
BRANCH   4  11
ATOM      6  C2  UNL     1     -14.262  75.554 -13.038  0.00  0.00    +0.000 A 
ATOM      7  C3  UNL     1     -15.366  75.819 -12.201  0.00  0.00    +0.000 A 
ATOM      8  C4  UNL     1     -16.354  74.847 -11.997  0.00  0.00    +0.000 A 
ATOM      9  C5  UNL     1     -16.250  73.607 -12.630  0.00  0.00    +0.000 A 
ATOM     10  C6  UNL     1     -15.158  73.329 -13.452  0.00  0.00    +0.000 A 
ATOM     11  C7  UNL     1     -14.145  74.281 -13.645  0.00  0.00    +0.000 A 
BRANCH   6  13
ATOM     12  C1  UNL     1     -12.148  76.787 -12.496  0.00  0.00    +0.000 C 
ATOM     13  O1  UNL     1     -13.293  76.537 -13.303  0.00  0.00    +0.000 OA
ENDBRANCH   6  13
BRANCH   8  14
ATOM     14  O6  UNL     1     -17.447  75.108 -11.173  0.00  0.00    +0.000 OA
ATOM     15  H20 UNL     1     -18.280  75.565 -11.526  0.00  0.00    +0.000 HD
ENDBRANCH   8  14
ENDBRANCH   4  11
ENDBRANCH   2   5
ENDBRANCH   1   2
BRANCH   1  16
ATOM     16  C12 UNL     1     -11.281  70.325 -15.646  0.00  0.00    +0.000 C 
ATOM     17  O3  UNL     1     -10.057  70.067 -15.496  0.00  0.00    +0.000 OA
BRANCH  16  18
ATOM     18  C13 UNL     1     -12.239  69.738 -14.684  0.00  0.00    +0.000 C 
ATOM     19  C14 UNL     1     -13.450  69.280 -15.035  0.00  0.00    +0.000 C 
BRANCH  19  20
ATOM     20  C15 UNL     1     -14.408  68.679 -14.074  0.00  0.00    +0.000 A 
ATOM     21  C16 UNL     1     -15.115  67.491 -14.353  0.00  0.00    +0.000 A 
ATOM     22  C17 UNL     1     -16.007  66.947 -13.408  0.00  0.00    +0.000 A 
ATOM     23  C18 UNL     1     -16.181  67.592 -12.176  0.00  0.00    +0.000 A 
ATOM     24  C19 UNL     1     -15.467  68.761 -11.888  0.00  0.00    +0.000 A 
ATOM     25  C20 UNL     1     -14.583  69.296 -12.827  0.00  0.00    +0.000 A 
BRANCH  23  26
ATOM     26  O4  UNL     1     -17.064  67.060 -11.238  0.00  0.00    +0.000 OA
ATOM     27  H16 UNL     1     -17.330  67.576 -10.406  0.00  0.00    +0.000 HD
ENDBRANCH  23  26
BRANCH  22  28
ATOM     28  O5  UNL     1     -16.733  65.771 -13.653  0.00  0.00    +0.000 OA
ATOM     29  C21 UNL     1     -16.354  64.768 -14.590  0.00  0.00    +0.000 C 
ENDBRANCH  22  28
ENDBRANCH  19  20
ENDBRANCH  16  18
ENDBRANCH   1  16
TORSDOF 10
ENDMDL
MODEL 4
REMARK VINA RESULT:      -3.7      2.687      6.149
REMARK  Name = .\curcumin.pdb
REMARK  12 active torsions:
REMARK  status: ('A' for Active; 'I' for Inactive)
REMARK    1  A    between atoms: C1_1  and  O1_2
REMARK    2  A    between atoms: O1_2  and  C2_3
REMARK    3  A    between atoms: C4_5  and  O6_27
REMARK    4  A    between atoms: C7_8  and  C8_9
REMARK    5  A    between atoms: C9_10  and  C10_11
REMARK    6  A    between atoms: C10_11  and  C11_13
REMARK    7  A    between atoms: C11_13  and  C12_14
REMARK    8  A    between atoms: C12_14  and  C13_16
REMARK    9  A    between atoms: C14_17  and  C15_18
REMARK   10  A    between atoms: C17_20  and  O5_25
REMARK   11  A    between atoms: C18_21  and  O4_24
REMARK   12  A    between atoms: O5_25  and  C21_26
REMARK                            x       y       z     vdW  Elec       q    Type
REMARK                         _______ _______ _______ _____ _____    ______ ____
ROOT
ATOM      1  C11 UNL     1     -16.277  73.858 -12.807  0.00  0.00    +0.000 C 
ENDROOT
BRANCH   1   2
ATOM      2  C10 UNL     1     -15.262  73.065 -12.032  0.00  0.00    +0.000 C 
ATOM      3  O2  UNL     1     -14.548  73.649 -11.173  0.00  0.00    +0.000 OA
BRANCH   2   5
ATOM      4  C8  UNL     1     -14.386  71.097 -13.234  0.00  0.00    +0.000 C 
ATOM      5  C9  UNL     1     -15.138  71.611 -12.252  0.00  0.00    +0.000 C 
BRANCH   4  11
ATOM      6  C2  UNL     1     -13.566  69.102 -14.573  0.00  0.00    +0.000 A 
ATOM      7  C3  UNL     1     -13.462  67.703 -14.708  0.00  0.00    +0.000 A 
ATOM      8  C4  UNL     1     -13.977  66.852 -13.722  0.00  0.00    +0.000 A 
ATOM      9  C5  UNL     1     -14.593  67.391 -12.592  0.00  0.00    +0.000 A 
ATOM     10  C6  UNL     1     -14.711  68.773 -12.449  0.00  0.00    +0.000 A 
ATOM     11  C7  UNL     1     -14.226  69.640 -13.442  0.00  0.00    +0.000 A 
BRANCH   6  13
ATOM     12  C1  UNL     1     -11.623  70.317 -15.589  0.00  0.00    +0.000 C 
ATOM     13  O1  UNL     1     -13.003  69.973 -15.521  0.00  0.00    +0.000 OA
ENDBRANCH   6  13
BRANCH   8  14
ATOM     14  O6  UNL     1     -13.872  65.468 -13.853  0.00  0.00    +0.000 OA
ATOM     15  H20 UNL     1     -14.691  64.882 -13.963  0.00  0.00    +0.000 HD
ENDBRANCH   8  14
ENDBRANCH   4  11
ENDBRANCH   2   5
ENDBRANCH   1   2
BRANCH   1  16
ATOM     16  C12 UNL     1     -15.659  75.027 -13.539  0.00  0.00    +0.000 C 
ATOM     17  O3  UNL     1     -16.393  75.952 -13.982  0.00  0.00    +0.000 OA
BRANCH  16  18
ATOM     18  C13 UNL     1     -14.201  75.130 -13.760  0.00  0.00    +0.000 C 
ATOM     19  C14 UNL     1     -13.431  76.069 -13.187  0.00  0.00    +0.000 C 
BRANCH  19  20
ATOM     20  C15 UNL     1     -11.966  76.167 -13.397  0.00  0.00    +0.000 A 
ATOM     21  C16 UNL     1     -11.055  76.299 -12.329  0.00  0.00    +0.000 A 
ATOM     22  C17 UNL     1      -9.670  76.378 -12.573  0.00  0.00    +0.000 A 
ATOM     23  C18 UNL     1      -9.198  76.313 -13.891  0.00  0.00    +0.000 A 
ATOM     24  C19 UNL     1     -10.098  76.163 -14.952  0.00  0.00    +0.000 A 
ATOM     25  C20 UNL     1     -11.470  76.084 -14.707  0.00  0.00    +0.000 A 
BRANCH  23  26
ATOM     26  O4  UNL     1      -7.829  76.393 -14.137  0.00  0.00    +0.000 OA
ATOM     27  H16 UNL     1      -7.268  77.158 -13.777  0.00  0.00    +0.000 HD
ENDBRANCH  23  26
BRANCH  22  28
ATOM     28  O5  UNL     1      -8.733  76.518 -11.535  0.00  0.00    +0.000 OA
ATOM     29  C21 UNL     1      -7.771  75.531 -11.179  0.00  0.00    +0.000 C 
ENDBRANCH  22  28
ENDBRANCH  19  20
ENDBRANCH  16  18
ENDBRANCH   1  16
TORSDOF 10
ENDMDL
MODEL 5
REMARK VINA RESULT:      -3.7      1.691      6.607
REMARK  Name = .\curcumin.pdb
REMARK  12 active torsions:
REMARK  status: ('A' for Active; 'I' for Inactive)
REMARK    1  A    between atoms: C1_1  and  O1_2
REMARK    2  A    between atoms: O1_2  and  C2_3
REMARK    3  A    between atoms: C4_5  and  O6_27
REMARK    4  A    between atoms: C7_8  and  C8_9
REMARK    5  A    between atoms: C9_10  and  C10_11
REMARK    6  A    between atoms: C10_11  and  C11_13
REMARK    7  A    between atoms: C11_13  and  C12_14
REMARK    8  A    between atoms: C12_14  and  C13_16
REMARK    9  A    between atoms: C14_17  and  C15_18
REMARK   10  A    between atoms: C17_20  and  O5_25
REMARK   11  A    between atoms: C18_21  and  O4_24
REMARK   12  A    between atoms: O5_25  and  C21_26
REMARK                            x       y       z     vdW  Elec       q    Type
REMARK                         _______ _______ _______ _____ _____    ______ ____
ROOT
ATOM      1  C11 UNL     1     -10.441  70.964 -17.117  0.00  0.00    +0.000 C 
ENDROOT
BRANCH   1   2
ATOM      2  C10 UNL     1     -11.452  72.075 -17.168  0.00  0.00    +0.000 C 
ATOM      3  O2  UNL     1     -11.720  72.615 -18.275  0.00  0.00    +0.000 OA
BRANCH   2   5
ATOM      4  C8  UNL     1     -12.999  73.529 -15.913  0.00  0.00    +0.000 C 
ATOM      5  C9  UNL     1     -12.148  72.496 -15.936  0.00  0.00    +0.000 C 
BRANCH   4  11
ATOM      6  C2  UNL     1     -13.972  75.294 -14.369  0.00  0.00    +0.000 A 
ATOM      7  C3  UNL     1     -14.665  75.606 -13.182  0.00  0.00    +0.000 A 
ATOM      8  C4  UNL     1     -15.140  74.588 -12.345  0.00  0.00    +0.000 A 
ATOM      9  C5  UNL     1     -14.930  73.252 -12.690  0.00  0.00    +0.000 A 
ATOM     10  C6  UNL     1     -14.237  72.929 -13.856  0.00  0.00    +0.000 A 
ATOM     11  C7  UNL     1     -13.731  73.937 -14.692  0.00  0.00    +0.000 A 
BRANCH   6  13
ATOM     12  C1  UNL     1     -12.208  76.790 -15.336  0.00  0.00    +0.000 C 
ATOM     13  O1  UNL     1     -13.542  76.299 -15.251  0.00  0.00    +0.000 OA
ENDBRANCH   6  13
BRANCH   8  14
ATOM     14  O6  UNL     1     -15.828  74.895 -11.173  0.00  0.00    +0.000 OA
ATOM     15  H20 UNL     1     -15.377  75.371 -10.401  0.00  0.00    +0.000 HD
ENDBRANCH   8  14
ENDBRANCH   4  11
ENDBRANCH   2   5
ENDBRANCH   1   2
BRANCH   1  16
ATOM     16  C12 UNL     1     -10.704  69.996 -15.987  0.00  0.00    +0.000 C 
ATOM     17  O3  UNL     1      -9.742  69.530 -15.319  0.00  0.00    +0.000 OA
BRANCH  16  18
ATOM     18  C13 UNL     1     -12.072  69.565 -15.627  0.00  0.00    +0.000 C 
ATOM     19  C14 UNL     1     -12.339  68.426 -14.968  0.00  0.00    +0.000 C 
BRANCH  19  20
ATOM     20  C15 UNL     1     -13.710  67.999 -14.595  0.00  0.00    +0.000 A 
ATOM     21  C16 UNL     1     -14.765  68.916 -14.412  0.00  0.00    +0.000 A 
ATOM     22  C17 UNL     1     -16.055  68.466 -14.068  0.00  0.00    +0.000 A 
ATOM     23  C18 UNL     1     -16.288  67.092 -13.920  0.00  0.00    +0.000 A 
ATOM     24  C19 UNL     1     -15.248  66.178 -14.119  0.00  0.00    +0.000 A 
ATOM     25  C20 UNL     1     -13.971  66.627 -14.460  0.00  0.00    +0.000 A 
BRANCH  23  26
ATOM     26  O4  UNL     1     -17.562  66.642 -13.578  0.00  0.00    +0.000 OA
ATOM     27  H16 UNL     1     -18.159  67.165 -12.945  0.00  0.00    +0.000 HD
ENDBRANCH  23  26
BRANCH  22  28
ATOM     28  O5  UNL     1     -17.129  69.350 -13.870  0.00  0.00    +0.000 OA
ATOM     29  C21 UNL     1     -17.482  69.922 -12.615  0.00  0.00    +0.000 C 
ENDBRANCH  22  28
ENDBRANCH  19  20
ENDBRANCH  16  18
ENDBRANCH   1  16
TORSDOF 10
ENDMDL
MODEL 6
REMARK VINA RESULT:      -3.2      1.485      5.858
REMARK  Name = .\curcumin.pdb
REMARK  12 active torsions:
REMARK  status: ('A' for Active; 'I' for Inactive)
REMARK    1  A    between atoms: C1_1  and  O1_2
REMARK    2  A    between atoms: O1_2  and  C2_3
REMARK    3  A    between atoms: C4_5  and  O6_27
REMARK    4  A    between atoms: C7_8  and  C8_9
REMARK    5  A    between atoms: C9_10  and  C10_11
REMARK    6  A    between atoms: C10_11  and  C11_13
REMARK    7  A    between atoms: C11_13  and  C12_14
REMARK    8  A    between atoms: C12_14  and  C13_16
REMARK    9  A    between atoms: C14_17  and  C15_18
REMARK   10  A    between atoms: C17_20  and  O5_25
REMARK   11  A    between atoms: C18_21  and  O4_24
REMARK   12  A    between atoms: O5_25  and  C21_26
REMARK                            x       y       z     vdW  Elec       q    Type
REMARK                         _______ _______ _______ _____ _____    ______ ____
ROOT
ATOM      1  C11 UNL     1     -16.690  67.172 -12.647  0.00  0.00    +0.000 C 
ENDROOT
BRANCH   1   2
ATOM      2  C10 UNL     1     -15.813  68.033 -11.782  0.00  0.00    +0.000 C 
ATOM      3  O2  UNL     1     -14.776  67.537 -11.266  0.00  0.00    +0.000 OA
BRANCH   2   5
ATOM      4  C8  UNL     1     -15.605  70.433 -12.313  0.00  0.00    +0.000 C 
ATOM      5  C9  UNL     1     -16.149  69.456 -11.577  0.00  0.00    +0.000 C 
BRANCH   4  11
ATOM      6  C2  UNL     1     -15.231  72.904 -12.754  0.00  0.00    +0.000 A 
ATOM      7  C3  UNL     1     -15.623  74.241 -12.534  0.00  0.00    +0.000 A 
ATOM      8  C4  UNL     1     -16.742  74.533 -11.744  0.00  0.00    +0.000 A 
ATOM      9  C5  UNL     1     -17.480  73.495 -11.173  0.00  0.00    +0.000 A 
ATOM     10  C6  UNL     1     -17.097  72.169 -11.375  0.00  0.00    +0.000 A 
ATOM     11  C7  UNL     1     -15.962  71.859 -12.141  0.00  0.00    +0.000 A 
BRANCH   6  13
ATOM     12  C1  UNL     1     -13.537  73.493 -14.507  0.00  0.00    +0.000 C 
ATOM     13  O1  UNL     1     -14.148  72.588 -13.593  0.00  0.00    +0.000 OA
ENDBRANCH   6  13
BRANCH   8  14
ATOM     14  O6  UNL     1     -17.133  75.853 -11.529  0.00  0.00    +0.000 OA
ATOM     15  H20 UNL     1     -17.939  76.251 -11.996  0.00  0.00    +0.000 HD
ENDBRANCH   8  14
ENDBRANCH   4  11
ENDBRANCH   2   5
ENDBRANCH   1   2
BRANCH   1  16
ATOM     16  C12 UNL     1     -15.974  66.675 -13.882  0.00  0.00    +0.000 C 
ATOM     17  O3  UNL     1     -16.537  65.848 -14.648  0.00  0.00    +0.000 OA
BRANCH  16  18
ATOM     18  C13 UNL     1     -14.611  67.130 -14.232  0.00  0.00    +0.000 C 
ATOM     19  C14 UNL     1     -14.356  68.300 -14.839  0.00  0.00    +0.000 C 
BRANCH  19  20
ATOM     20  C15 UNL     1     -12.989  68.764 -15.181  0.00  0.00    +0.000 A 
ATOM     21  C16 UNL     1     -12.724  70.077 -15.623  0.00  0.00    +0.000 A 
ATOM     22  C17 UNL     1     -11.409  70.480 -15.927  0.00  0.00    +0.000 A 
ATOM     23  C18 UNL     1     -10.357  69.567 -15.775  0.00  0.00    +0.000 A 
ATOM     24  C19 UNL     1     -10.614  68.269 -15.320  0.00  0.00    +0.000 A 
ATOM     25  C20 UNL     1     -11.918  67.873 -15.019  0.00  0.00    +0.000 A 
BRANCH  23  26
ATOM     26  O4  UNL     1      -9.054  69.960 -16.077  0.00  0.00    +0.000 OA
ATOM     27  H16 UNL     1      -8.428  69.363 -16.606  0.00  0.00    +0.000 HD
ENDBRANCH  23  26
BRANCH  22  28
ATOM     28  O5  UNL     1     -11.108  71.776 -16.376  0.00  0.00    +0.000 OA
ATOM     29  C21 UNL     1     -11.700  72.394 -17.514  0.00  0.00    +0.000 C 
ENDBRANCH  22  28
ENDBRANCH  19  20
ENDBRANCH  16  18
ENDBRANCH   1  16
TORSDOF 10
ENDMDL
MODEL 7
REMARK VINA RESULT:      -2.7      1.683      5.553
REMARK  Name = .\curcumin.pdb
REMARK  12 active torsions:
REMARK  status: ('A' for Active; 'I' for Inactive)
REMARK    1  A    between atoms: C1_1  and  O1_2
REMARK    2  A    between atoms: O1_2  and  C2_3
REMARK    3  A    between atoms: C4_5  and  O6_27
REMARK    4  A    between atoms: C7_8  and  C8_9
REMARK    5  A    between atoms: C9_10  and  C10_11
REMARK    6  A    between atoms: C10_11  and  C11_13
REMARK    7  A    between atoms: C11_13  and  C12_14
REMARK    8  A    between atoms: C12_14  and  C13_16
REMARK    9  A    between atoms: C14_17  and  C15_18
REMARK   10  A    between atoms: C17_20  and  O5_25
REMARK   11  A    between atoms: C18_21  and  O4_24
REMARK   12  A    between atoms: O5_25  and  C21_26
REMARK                            x       y       z     vdW  Elec       q    Type
REMARK                         _______ _______ _______ _____ _____    ______ ____
ROOT
ATOM      1  C11 UNL     1     -14.791  68.456 -13.368  0.00  0.00    +0.000 C 
ENDROOT
BRANCH   1   2
ATOM      2  C10 UNL     1     -14.659  69.244 -12.094  0.00  0.00    +0.000 C 
ATOM      3  O2  UNL     1     -13.918  68.808 -11.173  0.00  0.00    +0.000 OA
BRANCH   2   5
ATOM      4  C8  UNL     1     -14.726  71.660 -11.605  0.00  0.00    +0.000 C 
ATOM      5  C9  UNL     1     -15.362  70.533 -11.949  0.00  0.00    +0.000 C 
BRANCH   4  11
ATOM      6  C2  UNL     1     -14.710  74.190 -11.397  0.00  0.00    +0.000 A 
ATOM      7  C3  UNL     1     -15.434  75.394 -11.280  0.00  0.00    +0.000 A 
ATOM      8  C4  UNL     1     -16.835  75.387 -11.287  0.00  0.00    +0.000 A 
ATOM      9  C5  UNL     1     -17.522  74.179 -11.418  0.00  0.00    +0.000 A 
ATOM     10  C6  UNL     1     -16.818  72.980 -11.526  0.00  0.00    +0.000 A 
ATOM     11  C7  UNL     1     -15.414  72.967 -11.492  0.00  0.00    +0.000 A 
BRANCH   6  13
ATOM     12  C1  UNL     1     -12.482  75.339 -11.337  0.00  0.00    +0.000 C 
ATOM     13  O1  UNL     1     -13.306  74.184 -11.453  0.00  0.00    +0.000 OA
ENDBRANCH   6  13
BRANCH   8  14
ATOM     14  O6  UNL     1     -17.552  76.576 -11.175  0.00  0.00    +0.000 OA
ATOM     15  H20 UNL     1     -17.086  77.473 -11.113  0.00  0.00    +0.000 HD
ENDBRANCH   8  14
ENDBRANCH   4  11
ENDBRANCH   2   5
ENDBRANCH   1   2
BRANCH   1  16
ATOM     16  C12 UNL     1     -13.520  68.465 -14.186  0.00  0.00    +0.000 C 
ATOM     17  O3  UNL     1     -12.902  67.388 -14.403  0.00  0.00    +0.000 OA
BRANCH  16  18
ATOM     18  C13 UNL     1     -12.963  69.713 -14.753  0.00  0.00    +0.000 C 
ATOM     19  C14 UNL     1     -13.637  70.872 -14.792  0.00  0.00    +0.000 C 
BRANCH  19  20
ATOM     20  C15 UNL     1     -13.076  72.128 -15.349  0.00  0.00    +0.000 A 
ATOM     21  C16 UNL     1     -13.284  73.384 -14.743  0.00  0.00    +0.000 A 
ATOM     22  C17 UNL     1     -12.724  74.551 -15.299  0.00  0.00    +0.000 A 
ATOM     23  C18 UNL     1     -11.944  74.454 -16.460  0.00  0.00    +0.000 A 
ATOM     24  C19 UNL     1     -11.720  73.207 -17.053  0.00  0.00    +0.000 A 
ATOM     25  C20 UNL     1     -12.277  72.052 -16.499  0.00  0.00    +0.000 A 
BRANCH  23  26
ATOM     26  O4  UNL     1     -11.389  75.605 -17.015  0.00  0.00    +0.000 OA
ATOM     27  H16 UNL     1     -11.971  76.345 -17.395  0.00  0.00    +0.000 HD
ENDBRANCH  23  26
BRANCH  22  28
ATOM     28  O5  UNL     1     -12.915  75.819 -14.728  0.00  0.00    +0.000 OA
ATOM     29  C21 UNL     1     -14.171  76.485 -14.642  0.00  0.00    +0.000 C 
ENDBRANCH  22  28
ENDBRANCH  19  20
ENDBRANCH  16  18
ENDBRANCH   1  16
TORSDOF 10
ENDMDL
MODEL 8
REMARK VINA RESULT:      -2.7      1.504      5.734
REMARK  Name = .\curcumin.pdb
REMARK  12 active torsions:
REMARK  status: ('A' for Active; 'I' for Inactive)
REMARK    1  A    between atoms: C1_1  and  O1_2
REMARK    2  A    between atoms: O1_2  and  C2_3
REMARK    3  A    between atoms: C4_5  and  O6_27
REMARK    4  A    between atoms: C7_8  and  C8_9
REMARK    5  A    between atoms: C9_10  and  C10_11
REMARK    6  A    between atoms: C10_11  and  C11_13
REMARK    7  A    between atoms: C11_13  and  C12_14
REMARK    8  A    between atoms: C12_14  and  C13_16
REMARK    9  A    between atoms: C14_17  and  C15_18
REMARK   10  A    between atoms: C17_20  and  O5_25
REMARK   11  A    between atoms: C18_21  and  O4_24
REMARK   12  A    between atoms: O5_25  and  C21_26
REMARK                            x       y       z     vdW  Elec       q    Type
REMARK                         _______ _______ _______ _____ _____    ______ ____
ROOT
ATOM      1  C11 UNL     1     -15.748  68.523 -11.231  0.00  0.00    +0.000 C 
ENDROOT
BRANCH   1   2
ATOM      2  C10 UNL     1     -16.319  69.912 -11.296  0.00  0.00    +0.000 C 
ATOM      3  O2  UNL     1     -17.562  70.074 -11.174  0.00  0.00    +0.000 OA
BRANCH   2   5
ATOM      4  C8  UNL     1     -15.815  72.203 -12.058  0.00  0.00    +0.000 C 
ATOM      5  C9  UNL     1     -15.420  71.071 -11.461  0.00  0.00    +0.000 C 
BRANCH   4  11
ATOM      6  C2  UNL     1     -15.029  74.279 -13.290  0.00  0.00    +0.000 A 
ATOM      7  C3  UNL     1     -14.147  75.377 -13.361  0.00  0.00    +0.000 A 
ATOM      8  C4  UNL     1     -13.208  75.602 -12.347  0.00  0.00    +0.000 A 
ATOM      9  C5  UNL     1     -13.145  74.737 -11.253  0.00  0.00    +0.000 A 
ATOM     10  C6  UNL     1     -14.005  73.641 -11.176  0.00  0.00    +0.000 A 
ATOM     11  C7  UNL     1     -14.934  73.385 -12.197  0.00  0.00    +0.000 A 
BRANCH   6  13
ATOM     12  C1  UNL     1     -17.112  74.948 -14.514  0.00  0.00    +0.000 C 
ATOM     13  O1  UNL     1     -16.018  74.071 -14.266  0.00  0.00    +0.000 OA
ENDBRANCH   6  13
BRANCH   8  14
ATOM     14  O6  UNL     1     -12.338  76.688 -12.413  0.00  0.00    +0.000 OA
ATOM     15  H20 UNL     1     -11.716  76.918 -11.647  0.00  0.00    +0.000 HD
ENDBRANCH   8  14
ENDBRANCH   4  11
ENDBRANCH   2   5
ENDBRANCH   1   2
BRANCH   1  16
ATOM     16  C12 UNL     1     -15.196  68.062 -12.561  0.00  0.00    +0.000 C 
ATOM     17  O3  UNL     1     -15.661  67.029 -13.112  0.00  0.00    +0.000 OA
BRANCH  16  18
ATOM     18  C13 UNL     1     -14.111  68.791 -13.253  0.00  0.00    +0.000 C 
ATOM     19  C14 UNL     1     -14.268  69.394 -14.442  0.00  0.00    +0.000 C 
BRANCH  19  20
ATOM     20  C15 UNL     1     -13.185  70.136 -15.132  0.00  0.00    +0.000 A 
ATOM     21  C16 UNL     1     -11.913  69.574 -15.367  0.00  0.00    +0.000 A 
ATOM     22  C17 UNL     1     -10.915  70.310 -16.036  0.00  0.00    +0.000 A 
ATOM     23  C18 UNL     1     -11.199  71.608 -16.481  0.00  0.00    +0.000 A 
ATOM     24  C19 UNL     1     -12.466  72.162 -16.267  0.00  0.00    +0.000 A 
ATOM     25  C20 UNL     1     -13.453  71.430 -15.603  0.00  0.00    +0.000 A 
BRANCH  23  26
ATOM     26  O4  UNL     1     -10.215  72.341 -17.142  0.00  0.00    +0.000 OA
ATOM     27  H16 UNL     1      -9.728  71.968 -17.950  0.00  0.00    +0.000 HD
ENDBRANCH  23  26
BRANCH  22  28
ATOM     28  O5  UNL     1      -9.635  69.786 -16.282  0.00  0.00    +0.000 OA
ATOM     29  C21 UNL     1      -8.901  68.985 -15.361  0.00  0.00    +0.000 C 
ENDBRANCH  22  28
ENDBRANCH  19  20
ENDBRANCH  16  18
ENDBRANCH   1  16
TORSDOF 10
ENDMDL
MODEL 9
REMARK VINA RESULT:      -2.6      1.762      5.875
REMARK  Name = .\curcumin.pdb
REMARK  12 active torsions:
REMARK  status: ('A' for Active; 'I' for Inactive)
REMARK    1  A    between atoms: C1_1  and  O1_2
REMARK    2  A    between atoms: O1_2  and  C2_3
REMARK    3  A    between atoms: C4_5  and  O6_27
REMARK    4  A    between atoms: C7_8  and  C8_9
REMARK    5  A    between atoms: C9_10  and  C10_11
REMARK    6  A    between atoms: C10_11  and  C11_13
REMARK    7  A    between atoms: C11_13  and  C12_14
REMARK    8  A    between atoms: C12_14  and  C13_16
REMARK    9  A    between atoms: C14_17  and  C15_18
REMARK   10  A    between atoms: C17_20  and  O5_25
REMARK   11  A    between atoms: C18_21  and  O4_24
REMARK   12  A    between atoms: O5_25  and  C21_26
REMARK                            x       y       z     vdW  Elec       q    Type
REMARK                         _______ _______ _______ _____ _____    ______ ____
ROOT
ATOM      1  C11 UNL     1     -16.086  69.618 -11.490  0.00  0.00    +0.000 C 
ENDROOT
BRANCH   1   2
ATOM      2  C10 UNL     1     -16.358  71.032 -11.922  0.00  0.00    +0.000 C 
ATOM      3  O2  UNL     1     -17.537  71.475 -11.875  0.00  0.00    +0.000 OA
BRANCH   2   5
ATOM      4  C8  UNL     1     -15.399  72.848 -13.288  0.00  0.00    +0.000 C 
ATOM      5  C9  UNL     1     -15.245  71.896 -12.358  0.00  0.00    +0.000 C 
BRANCH   4  11
ATOM      6  C2  UNL     1     -13.810  74.785 -12.881  0.00  0.00    +0.000 A 
ATOM      7  C3  UNL     1     -12.767  75.607 -13.354  0.00  0.00    +0.000 A 
ATOM      8  C4  UNL     1     -12.197  75.382 -14.613  0.00  0.00    +0.000 A 
ATOM      9  C5  UNL     1     -12.660  74.331 -15.407  0.00  0.00    +0.000 A 
ATOM     10  C6  UNL     1     -13.698  73.516 -14.955  0.00  0.00    +0.000 A 
ATOM     11  C7  UNL     1     -14.299  73.745 -13.707  0.00  0.00    +0.000 A 
BRANCH   6  13
ATOM     12  C1  UNL     1     -15.096  76.095 -11.174  0.00  0.00    +0.000 C 
ATOM     13  O1  UNL     1     -14.352  74.957 -11.596  0.00  0.00    +0.000 OA
ENDBRANCH   6  13
BRANCH   8  14
ATOM     14  O6  UNL     1     -11.164  76.191 -15.081  0.00  0.00    +0.000 OA
ATOM     15  H20 UNL     1     -10.250  76.192 -14.642  0.00  0.00    +0.000 HD
ENDBRANCH   8  14
ENDBRANCH   4  11
ENDBRANCH   2   5
ENDBRANCH   1   2
BRANCH   1  16
ATOM     16  C12 UNL     1     -15.602  68.749 -12.627  0.00  0.00    +0.000 C 
ATOM     17  O3  UNL     1     -16.360  67.866 -13.112  0.00  0.00    +0.000 OA
BRANCH  16  18
ATOM     18  C13 UNL     1     -14.249  68.897 -13.205  0.00  0.00    +0.000 C 
ATOM     19  C14 UNL     1     -14.024  69.148 -14.505  0.00  0.00    +0.000 C 
BRANCH  19  20
ATOM     20  C15 UNL     1     -12.668  69.309 -15.084  0.00  0.00    +0.000 A 
ATOM     21  C16 UNL     1     -12.243  70.509 -15.691  0.00  0.00    +0.000 A 
ATOM     22  C17 UNL     1     -10.942  70.623 -16.220  0.00  0.00    +0.000 A 
ATOM     23  C18 UNL     1     -10.064  69.535 -16.129  0.00  0.00    +0.000 A 
ATOM     24  C19 UNL     1     -10.476  68.349 -15.511  0.00  0.00    +0.000 A 
ATOM     25  C20 UNL     1     -11.766  68.239 -14.987  0.00  0.00    +0.000 A 
BRANCH  23  26
ATOM     26  O4  UNL     1      -8.776  69.642 -16.653  0.00  0.00    +0.000 OA
ATOM     27  H16 UNL     1      -8.607  70.043 -17.569  0.00  0.00    +0.000 HD
ENDBRANCH  23  26
BRANCH  22  28
ATOM     28  O5  UNL     1     -10.485  71.799 -16.838  0.00  0.00    +0.000 OA
ATOM     29  C21 UNL     1     -11.239  72.567 -17.770  0.00  0.00    +0.000 C 
ENDBRANCH  22  28
ENDBRANCH  19  20
ENDBRANCH  16  18
ENDBRANCH   1  16
TORSDOF 10
ENDMDL
