MODEL 1
REMARK VINA RESULT:      13.6      0.000      0.000
REMARK  Name = .\curcumin.pdb
REMARK  12 active torsions:
REMARK  status: ('A' for Active; 'I' for Inactive)
REMARK    1  A    between atoms: C1_1  and  O1_2
REMARK    2  A    between atoms: O1_2  and  C2_3
REMARK    3  A    between atoms: C4_5  and  O6_27
REMARK    4  A    between atoms: C7_8  and  C8_9
REMARK    5  A    between atoms: C9_10  and  C10_11
REMARK    6  A    between atoms: C10_11  and  C11_13
REMARK    7  A    between atoms: C11_13  and  C12_14
REMARK    8  A    between atoms: C12_14  and  C13_16
REMARK    9  A    between atoms: C14_17  and  C15_18
REMARK   10  A    between atoms: C17_20  and  O5_25
REMARK   11  A    between atoms: C18_21  and  O4_24
REMARK   12  A    between atoms: O5_25  and  C21_26
REMARK                            x       y       z     vdW  Elec       q    Type
REMARK                         _______ _______ _______ _____ _____    ______ ____
ROOT
ATOM      1  C11 UNL     1      10.635  46.962  22.893  0.00  0.00    +0.000 C 
ENDROOT
BRANCH   1   2
ATOM      2  C10 UNL     1       9.750  48.146  22.620  0.00  0.00    +0.000 C 
ATOM      3  O2  UNL     1      10.270  49.286  22.481  0.00  0.00    +0.000 OA
BRANCH   2   5
ATOM      4  C8  UNL     1       7.755  46.798  22.083  0.00  0.00    +0.000 C 
ATOM      5  C9  UNL     1       8.293  47.960  22.477  0.00  0.00    +0.000 C 
BRANCH   4  11
ATOM      6  C2  UNL     1       5.726  45.315  21.731  0.00  0.00    +0.000 A 
ATOM      7  C3  UNL     1       4.325  45.195  21.624  0.00  0.00    +0.000 A 
ATOM      8  C4  UNL     1       3.500  46.315  21.786  0.00  0.00    +0.000 A 
ATOM      9  C5  UNL     1       4.066  47.561  22.060  0.00  0.00    +0.000 A 
ATOM     10  C6  UNL     1       5.451  47.696  22.158  0.00  0.00    +0.000 A 
ATOM     11  C7  UNL     1       6.294  46.588  21.971  0.00  0.00    +0.000 A 
BRANCH   6  13
ATOM     12  C1  UNL     1       7.282  43.616  22.720  0.00  0.00    +0.000 C 
ATOM     13  O1  UNL     1       6.566  44.193  21.632  0.00  0.00    +0.000 OA
ENDBRANCH   6  13
BRANCH   8  14
ATOM     14  O6  UNL     1       2.115  46.198  21.684  0.00  0.00    +0.000 OA
ATOM     15  H20 UNL     1       1.492  46.832  22.169  0.00  0.00    +0.000 HD
ENDBRANCH   8  14
ENDBRANCH   4  11
ENDBRANCH   2   5
ENDBRANCH   1   2
BRANCH   1  16
ATOM     16  C12 UNL     1       9.962  45.927  23.765  0.00  0.00    +0.000 C 
ATOM     17  O3  UNL     1      10.495  44.797  23.928  0.00  0.00    +0.000 OA
BRANCH  16  18
ATOM     18  C13 UNL     1       8.678  46.195  24.448  0.00  0.00    +0.000 C 
ATOM     19  C14 UNL     1       8.067  45.305  25.246  0.00  0.00    +0.000 C 
BRANCH  19  20
ATOM     20  C15 UNL     1       6.784  45.576  25.942  0.00  0.00    +0.000 A 
ATOM     21  C16 UNL     1       5.976  44.546  26.466  0.00  0.00    +0.000 A 
ATOM     22  C17 UNL     1       4.770  44.847  27.130  0.00  0.00    +0.000 A 
ATOM     23  C18 UNL     1       4.382  46.185  27.278  0.00  0.00    +0.000 A 
ATOM     24  C19 UNL     1       5.191  47.211  26.776  0.00  0.00    +0.000 A 
ATOM     25  C20 UNL     1       6.386  46.909  26.119  0.00  0.00    +0.000 A 
BRANCH  23  26
ATOM     26  O4  UNL     1       3.189  46.489  27.932  0.00  0.00    +0.000 OA
ATOM     27  H16 UNL     1       3.145  47.199  28.655  0.00  0.00    +0.000 HD
ENDBRANCH  23  26
BRANCH  22  28
ATOM     28  O5  UNL     1       3.936  43.848  27.658  0.00  0.00    +0.000 OA
ATOM     29  C21 UNL     1       2.639  43.535  27.162  0.00  0.00    +0.000 C 
ENDBRANCH  22  28
ENDBRANCH  19  20
ENDBRANCH  16  18
ENDBRANCH   1  16
TORSDOF 10
ENDMDL
MODEL 2
REMARK VINA RESULT:      16.6      1.782      2.737
REMARK  Name = .\curcumin.pdb
REMARK  12 active torsions:
REMARK  status: ('A' for Active; 'I' for Inactive)
REMARK    1  A    between atoms: C1_1  and  O1_2
REMARK    2  A    between atoms: O1_2  and  C2_3
REMARK    3  A    between atoms: C4_5  and  O6_27
REMARK    4  A    between atoms: C7_8  and  C8_9
REMARK    5  A    between atoms: C9_10  and  C10_11
REMARK    6  A    between atoms: C10_11  and  C11_13
REMARK    7  A    between atoms: C11_13  and  C12_14
REMARK    8  A    between atoms: C12_14  and  C13_16
REMARK    9  A    between atoms: C14_17  and  C15_18
REMARK   10  A    between atoms: C17_20  and  O5_25
REMARK   11  A    between atoms: C18_21  and  O4_24
REMARK   12  A    between atoms: O5_25  and  C21_26
REMARK                            x       y       z     vdW  Elec       q    Type
REMARK                         _______ _______ _______ _____ _____    ______ ____
ROOT
ATOM      1  C11 UNL     1      10.582  46.504  23.071  0.00  0.00    +0.000 C 
ENDROOT
BRANCH   1   2
ATOM      2  C10 UNL     1       9.853  47.722  22.578  0.00  0.00    +0.000 C 
ATOM      3  O2  UNL     1      10.507  48.763  22.301  0.00  0.00    +0.000 OA
BRANCH   2   5
ATOM      4  C8  UNL     1       7.557  47.230  23.332  0.00  0.00    +0.000 C 
ATOM      5  C9  UNL     1       8.390  47.678  22.385  0.00  0.00    +0.000 C 
BRANCH   4  11
ATOM      6  C2  UNL     1       5.195  47.411  24.246  0.00  0.00    +0.000 A 
ATOM      7  C3  UNL     1       3.805  47.371  24.011  0.00  0.00    +0.000 A 
ATOM      8  C4  UNL     1       3.308  47.171  22.716  0.00  0.00    +0.000 A 
ATOM      9  C5  UNL     1       4.193  47.017  21.648  0.00  0.00    +0.000 A 
ATOM     10  C6  UNL     1       5.570  47.045  21.869  0.00  0.00    +0.000 A 
ATOM     11  C7  UNL     1       6.086  47.215  23.164  0.00  0.00    +0.000 A 
BRANCH   6  13
ATOM     12  C1  UNL     1       4.952  47.652  26.730  0.00  0.00    +0.000 C 
ATOM     13  O1  UNL     1       5.713  47.670  25.527  0.00  0.00    +0.000 OA
ENDBRANCH   6  13
BRANCH   8  14
ATOM     14  O6  UNL     1       1.935  47.135  22.481  0.00  0.00    +0.000 OA
ATOM     15  H20 UNL     1       1.488  46.322  22.076  0.00  0.00    +0.000 HD
ENDBRANCH   8  14
ENDBRANCH   4  11
ENDBRANCH   2   5
ENDBRANCH   1   2
BRANCH   1  16
ATOM     16  C12 UNL     1       9.641  45.396  23.486  0.00  0.00    +0.000 C 
ATOM     17  O3  UNL     1       9.569  44.340  22.801  0.00  0.00    +0.000 OA
BRANCH  16  18
ATOM     18  C13 UNL     1       8.785  45.505  24.687  0.00  0.00    +0.000 C 
ATOM     19  C14 UNL     1       7.907  44.559  25.056  0.00  0.00    +0.000 C 
BRANCH  19  20
ATOM     20  C15 UNL     1       7.056  44.660  26.267  0.00  0.00    +0.000 A 
ATOM     21  C16 UNL     1       7.510  45.250  27.464  0.00  0.00    +0.000 A 
ATOM     22  C17 UNL     1       6.665  45.335  28.588  0.00  0.00    +0.000 A 
ATOM     23  C18 UNL     1       5.358  44.837  28.505  0.00  0.00    +0.000 A 
ATOM     24  C19 UNL     1       4.897  44.268  27.313  0.00  0.00    +0.000 A 
ATOM     25  C20 UNL     1       5.737  44.186  26.201  0.00  0.00    +0.000 A 
BRANCH  23  26
ATOM     26  O4  UNL     1       4.518  44.918  29.615  0.00  0.00    +0.000 OA
ATOM     27  H16 UNL     1       4.413  45.779  30.141  0.00  0.00    +0.000 HD
ENDBRANCH  23  26
BRANCH  22  28
ATOM     28  O5  UNL     1       7.085  45.909  29.799  0.00  0.00    +0.000 OA
ATOM     29  C21 UNL     1       7.354  47.295  29.985  0.00  0.00    +0.000 C 
ENDBRANCH  22  28
ENDBRANCH  19  20
ENDBRANCH  16  18
ENDBRANCH   1  16
TORSDOF 10
ENDMDL
