MODEL 1
REMARK VINA RESULT:      -4.2      0.000      0.000
REMARK  Name = .\curcumin.pdb
REMARK  12 active torsions:
REMARK  status: ('A' for Active; 'I' for Inactive)
REMARK    1  A    between atoms: C1_1  and  O1_2
REMARK    2  A    between atoms: O1_2  and  C2_3
REMARK    3  A    between atoms: C4_5  and  O6_27
REMARK    4  A    between atoms: C7_8  and  C8_9
REMARK    5  A    between atoms: C9_10  and  C10_11
REMARK    6  A    between atoms: C10_11  and  C11_13
REMARK    7  A    between atoms: C11_13  and  C12_14
REMARK    8  A    between atoms: C12_14  and  C13_16
REMARK    9  A    between atoms: C14_17  and  C15_18
REMARK   10  A    between atoms: C17_20  and  O5_25
REMARK   11  A    between atoms: C18_21  and  O4_24
REMARK   12  A    between atoms: O5_25  and  C21_26
REMARK                            x       y       z     vdW  Elec       q    Type
REMARK                         _______ _______ _______ _____ _____    ______ ____
ROOT
ATOM      1  C11 UNL     1      -6.006  87.164  61.916  0.00  0.00    +0.000 C 
ENDROOT
BRANCH   1   2
ATOM      2  C10 UNL     1      -5.267  88.472  61.981  0.00  0.00    +0.000 C 
ATOM      3  O2  UNL     1      -5.742  89.480  61.393  0.00  0.00    +0.000 OA
BRANCH   2   5
ATOM      4  C8  UNL     1      -2.933  89.203  62.295  0.00  0.00    +0.000 C 
ATOM      5  C9  UNL     1      -4.019  88.574  62.762  0.00  0.00    +0.000 C 
BRANCH   4  11
ATOM      6  C2  UNL     1      -0.410  89.417  62.479  0.00  0.00    +0.000 A 
ATOM      7  C3  UNL     1       0.733  89.538  63.297  0.00  0.00    +0.000 A 
ATOM      8  C4  UNL     1       0.607  89.619  64.689  0.00  0.00    +0.000 A 
ATOM      9  C5  UNL     1      -0.659  89.584  65.275  0.00  0.00    +0.000 A 
ATOM     10  C6  UNL     1      -1.797  89.454  64.479  0.00  0.00    +0.000 A 
ATOM     11  C7  UNL     1      -1.687  89.344  63.084  0.00  0.00    +0.000 A 
BRANCH   6  13
ATOM     12  C1  UNL     1       0.474  88.467  60.334  0.00  0.00    +0.000 C 
ATOM     13  O1  UNL     1      -0.308  89.396  61.078  0.00  0.00    +0.000 OA
ENDBRANCH   6  13
BRANCH   8  14
ATOM     14  O6  UNL     1       1.734  89.743  65.498  0.00  0.00    +0.000 OA
ATOM     15  H20 UNL     1       2.521  90.321  65.228  0.00  0.00    +0.000 HD
ENDBRANCH   8  14
ENDBRANCH   4  11
ENDBRANCH   2   5
ENDBRANCH   1   2
BRANCH   1  16
ATOM     16  C12 UNL     1      -5.156  86.047  61.356  0.00  0.00    +0.000 C 
ATOM     17  O3  UNL     1      -5.636  85.258  60.499  0.00  0.00    +0.000 OA
BRANCH  16  18
ATOM     18  C13 UNL     1      -3.755  85.840  61.783  0.00  0.00    +0.000 C 
ATOM     19  C14 UNL     1      -2.755  85.566  60.930  0.00  0.00    +0.000 C 
BRANCH  19  20
ATOM     20  C15 UNL     1      -1.348  85.370  61.355  0.00  0.00    +0.000 A 
ATOM     21  C16 UNL     1      -0.859  85.836  62.593  0.00  0.00    +0.000 A 
ATOM     22  C17 UNL     1       0.483  85.619  62.963  0.00  0.00    +0.000 A 
ATOM     23  C18 UNL     1       1.333  84.923  62.092  0.00  0.00    +0.000 A 
ATOM     24  C19 UNL     1       0.846  84.444  60.871  0.00  0.00    +0.000 A 
ATOM     25  C20 UNL     1      -0.484  84.660  60.508  0.00  0.00    +0.000 A 
BRANCH  23  26
ATOM     26  O4  UNL     1       2.662  84.708  62.452  0.00  0.00    +0.000 OA
ATOM     27  H16 UNL     1       3.080  83.785  62.412  0.00  0.00    +0.000 HD
ENDBRANCH  23  26
BRANCH  22  28
ATOM     28  O5  UNL     1       1.007  86.075  64.184  0.00  0.00    +0.000 OA
ATOM     29  C21 UNL     1       0.341  85.969  65.437  0.00  0.00    +0.000 C 
ENDBRANCH  22  28
ENDBRANCH  19  20
ENDBRANCH  16  18
ENDBRANCH   1  16
TORSDOF 10
ENDMDL
MODEL 2
REMARK VINA RESULT:      -3.7      2.104      4.246
REMARK  Name = .\curcumin.pdb
REMARK  12 active torsions:
REMARK  status: ('A' for Active; 'I' for Inactive)
REMARK    1  A    between atoms: C1_1  and  O1_2
REMARK    2  A    between atoms: O1_2  and  C2_3
REMARK    3  A    between atoms: C4_5  and  O6_27
REMARK    4  A    between atoms: C7_8  and  C8_9
REMARK    5  A    between atoms: C9_10  and  C10_11
REMARK    6  A    between atoms: C10_11  and  C11_13
REMARK    7  A    between atoms: C11_13  and  C12_14
REMARK    8  A    between atoms: C12_14  and  C13_16
REMARK    9  A    between atoms: C14_17  and  C15_18
REMARK   10  A    between atoms: C17_20  and  O5_25
REMARK   11  A    between atoms: C18_21  and  O4_24
REMARK   12  A    between atoms: O5_25  and  C21_26
REMARK                            x       y       z     vdW  Elec       q    Type
REMARK                         _______ _______ _______ _____ _____    ______ ____
ROOT
ATOM      1  C11 UNL     1      -4.580  89.577  63.959  0.00  0.00    +0.000 C 
ENDROOT
BRANCH   1   2
ATOM      2  C10 UNL     1      -4.679  89.065  62.549  0.00  0.00    +0.000 C 
ATOM      3  O2  UNL     1      -5.388  89.688  61.714  0.00  0.00    +0.000 OA
BRANCH   2   5
ATOM      4  C8  UNL     1      -2.801  87.944  61.408  0.00  0.00    +0.000 C 
ATOM      5  C9  UNL     1      -3.916  87.867  62.145  0.00  0.00    +0.000 C 
BRANCH   4  11
ATOM      6  C2  UNL     1      -0.625  86.822  60.736  0.00  0.00    +0.000 A 
ATOM      7  C3  UNL     1       0.061  85.646  60.369  0.00  0.00    +0.000 A 
ATOM      8  C4  UNL     1      -0.608  84.416  60.323  0.00  0.00    +0.000 A 
ATOM      9  C5  UNL     1      -1.964  84.350  60.648  0.00  0.00    +0.000 A 
ATOM     10  C6  UNL     1      -2.657  85.507  61.003  0.00  0.00    +0.000 A 
ATOM     11  C7  UNL     1      -2.009  86.752  61.028  0.00  0.00    +0.000 A 
BRANCH   6  13
ATOM     12  C1  UNL     1       0.866  88.625  59.837  0.00  0.00    +0.000 C 
ATOM     13  O1  UNL     1       0.042  88.053  60.848  0.00  0.00    +0.000 OA
ENDBRANCH   6  13
BRANCH   8  14
ATOM     14  O6  UNL     1       0.069  83.253  59.964  0.00  0.00    +0.000 OA
ATOM     15  H20 UNL     1       0.881  82.931  60.477  0.00  0.00    +0.000 HD
ENDBRANCH   8  14
ENDBRANCH   4  11
ENDBRANCH   2   5
ENDBRANCH   1   2
BRANCH   1  16
ATOM     16  C12 UNL     1      -4.062  88.531  64.919  0.00  0.00    +0.000 C 
ATOM     17  O3  UNL     1      -4.854  87.955  65.712  0.00  0.00    +0.000 OA
BRANCH  16  18
ATOM     18  C13 UNL     1      -2.633  88.150  64.964  0.00  0.00    +0.000 C 
ATOM     19  C14 UNL     1      -2.211  86.887  65.132  0.00  0.00    +0.000 C 
BRANCH  19  20
ATOM     20  C15 UNL     1      -0.779  86.501  65.166  0.00  0.00    +0.000 A 
ATOM     21  C16 UNL     1       0.175  87.055  64.288  0.00  0.00    +0.000 A 
ATOM     22  C17 UNL     1       1.528  86.668  64.361  0.00  0.00    +0.000 A 
ATOM     23  C18 UNL     1       1.925  85.732  65.326  0.00  0.00    +0.000 A 
ATOM     24  C19 UNL     1       0.984  85.194  66.211  0.00  0.00    +0.000 A 
ATOM     25  C20 UNL     1      -0.356  85.580  66.136  0.00  0.00    +0.000 A 
BRANCH  23  26
ATOM     26  O4  UNL     1       3.261  85.344  65.401  0.00  0.00    +0.000 OA
ATOM     27  H16 UNL     1       3.530  84.424  65.733  0.00  0.00    +0.000 HD
ENDBRANCH  23  26
BRANCH  22  28
ATOM     28  O5  UNL     1       2.505  87.192  63.499  0.00  0.00    +0.000 OA
ATOM     29  C21 UNL     1       2.897  86.596  62.266  0.00  0.00    +0.000 C 
ENDBRANCH  22  28
ENDBRANCH  19  20
ENDBRANCH  16  18
ENDBRANCH   1  16
TORSDOF 10
ENDMDL
MODEL 3
REMARK VINA RESULT:      -3.7      1.108      1.996
REMARK  Name = .\curcumin.pdb
REMARK  12 active torsions:
REMARK  status: ('A' for Active; 'I' for Inactive)
REMARK    1  A    between atoms: C1_1  and  O1_2
REMARK    2  A    between atoms: O1_2  and  C2_3
REMARK    3  A    between atoms: C4_5  and  O6_27
REMARK    4  A    between atoms: C7_8  and  C8_9
REMARK    5  A    between atoms: C9_10  and  C10_11
REMARK    6  A    between atoms: C10_11  and  C11_13
REMARK    7  A    between atoms: C11_13  and  C12_14
REMARK    8  A    between atoms: C12_14  and  C13_16
REMARK    9  A    between atoms: C14_17  and  C15_18
REMARK   10  A    between atoms: C17_20  and  O5_25
REMARK   11  A    between atoms: C18_21  and  O4_24
REMARK   12  A    between atoms: O5_25  and  C21_26
REMARK                            x       y       z     vdW  Elec       q    Type
REMARK                         _______ _______ _______ _____ _____    ______ ____
ROOT
ATOM      1  C11 UNL     1      -5.905  87.114  61.715  0.00  0.00    +0.000 C 
ENDROOT
BRANCH   1   2
ATOM      2  C10 UNL     1      -5.144  88.408  61.799  0.00  0.00    +0.000 C 
ATOM      3  O2  UNL     1      -5.769  89.498  61.709  0.00  0.00    +0.000 OA
BRANCH   2   5
ATOM      4  C8  UNL     1      -2.847  89.180  61.343  0.00  0.00    +0.000 C 
ATOM      5  C9  UNL     1      -3.686  88.392  62.027  0.00  0.00    +0.000 C 
BRANCH   4  11
ATOM      6  C2  UNL     1      -0.832  89.493  62.856  0.00  0.00    +0.000 A 
ATOM      7  C3  UNL     1       0.569  89.504  63.010  0.00  0.00    +0.000 A 
ATOM      8  C4  UNL     1       1.406  89.198  61.929  0.00  0.00    +0.000 A 
ATOM      9  C5  UNL     1       0.851  88.872  60.691  0.00  0.00    +0.000 A 
ATOM     10  C6  UNL     1      -0.533  88.867  60.523  0.00  0.00    +0.000 A 
ATOM     11  C7  UNL     1      -1.386  89.199  61.587  0.00  0.00    +0.000 A 
BRANCH   6  13
ATOM     12  C1  UNL     1      -1.649  89.040  65.183  0.00  0.00    +0.000 C 
ATOM     13  O1  UNL     1      -1.689  89.738  63.942  0.00  0.00    +0.000 OA
ENDBRANCH   6  13
BRANCH   8  14
ATOM     14  O6  UNL     1       2.791  89.205  62.080  0.00  0.00    +0.000 OA
ATOM     15  H20 UNL     1       3.384  88.559  61.572  0.00  0.00    +0.000 HD
ENDBRANCH   8  14
ENDBRANCH   4  11
ENDBRANCH   2   5
ENDBRANCH   1   2
BRANCH   1  16
ATOM     16  C12 UNL     1      -5.028  85.954  61.302  0.00  0.00    +0.000 C 
ATOM     17  O3  UNL     1      -5.495  85.040  60.571  0.00  0.00    +0.000 OA
BRANCH  16  18
ATOM     18  C13 UNL     1      -3.616  85.848  61.731  0.00  0.00    +0.000 C 
ATOM     19  C14 UNL     1      -2.644  85.343  60.956  0.00  0.00    +0.000 C 
BRANCH  19  20
ATOM     20  C15 UNL     1      -1.226  85.247  61.379  0.00  0.00    +0.000 A 
ATOM     21  C16 UNL     1      -0.763  85.780  62.600  0.00  0.00    +0.000 A 
ATOM     22  C17 UNL     1       0.591  85.657  62.970  0.00  0.00    +0.000 A 
ATOM     23  C18 UNL     1       1.479  84.989  62.116  0.00  0.00    +0.000 A 
ATOM     24  C19 UNL     1       1.020  84.443  60.912  0.00  0.00    +0.000 A 
ATOM     25  C20 UNL     1      -0.323  84.566  60.550  0.00  0.00    +0.000 A 
BRANCH  23  26
ATOM     26  O4  UNL     1       2.820  84.867  62.476  0.00  0.00    +0.000 OA
ATOM     27  H16 UNL     1       3.517  85.535  62.164  0.00  0.00    +0.000 HD
ENDBRANCH  23  26
BRANCH  22  28
ATOM     28  O5  UNL     1       1.089  86.181  64.174  0.00  0.00    +0.000 OA
ATOM     29  C21 UNL     1       1.248  85.432  65.375  0.00  0.00    +0.000 C 
ENDBRANCH  22  28
ENDBRANCH  19  20
ENDBRANCH  16  18
ENDBRANCH   1  16
TORSDOF 10
ENDMDL
MODEL 4
REMARK VINA RESULT:      -3.6      1.834      3.086
REMARK  Name = .\curcumin.pdb
REMARK  12 active torsions:
REMARK  status: ('A' for Active; 'I' for Inactive)
REMARK    1  A    between atoms: C1_1  and  O1_2
REMARK    2  A    between atoms: O1_2  and  C2_3
REMARK    3  A    between atoms: C4_5  and  O6_27
REMARK    4  A    between atoms: C7_8  and  C8_9
REMARK    5  A    between atoms: C9_10  and  C10_11
REMARK    6  A    between atoms: C10_11  and  C11_13
REMARK    7  A    between atoms: C11_13  and  C12_14
REMARK    8  A    between atoms: C12_14  and  C13_16
REMARK    9  A    between atoms: C14_17  and  C15_18
REMARK   10  A    between atoms: C17_20  and  O5_25
REMARK   11  A    between atoms: C18_21  and  O4_24
REMARK   12  A    between atoms: O5_25  and  C21_26
REMARK                            x       y       z     vdW  Elec       q    Type
REMARK                         _______ _______ _______ _____ _____    ______ ____
ROOT
ATOM      1  C11 UNL     1      -5.179  86.184  61.344  0.00  0.00    +0.000 C 
ENDROOT
BRANCH   1   2
ATOM      2  C10 UNL     1      -4.710  87.497  61.904  0.00  0.00    +0.000 C 
ATOM      3  O2  UNL     1      -5.533  88.243  62.500  0.00  0.00    +0.000 OA
BRANCH   2   5
ATOM      4  C8  UNL     1      -2.578  88.316  62.837  0.00  0.00    +0.000 C 
ATOM      5  C9  UNL     1      -3.290  87.883  61.788  0.00  0.00    +0.000 C 
BRANCH   4  11
ATOM      6  C2  UNL     1      -0.245  88.501  63.821  0.00  0.00    +0.000 A 
ATOM      7  C3  UNL     1       1.105  88.874  63.658  0.00  0.00    +0.000 A 
ATOM      8  C4  UNL     1       1.562  89.377  62.434  0.00  0.00    +0.000 A 
ATOM      9  C5  UNL     1       0.677  89.507  61.362  0.00  0.00    +0.000 A 
ATOM     10  C6  UNL     1      -0.663  89.152  61.512  0.00  0.00    +0.000 A 
ATOM     11  C7  UNL     1      -1.144  88.671  62.741  0.00  0.00    +0.000 A 
BRANCH   6  13
ATOM     12  C1  UNL     1      -0.676  86.548  65.333  0.00  0.00    +0.000 C 
ATOM     13  O1  UNL     1      -0.709  87.937  65.021  0.00  0.00    +0.000 OA
ENDBRANCH   6  13
BRANCH   8  14
ATOM     14  O6  UNL     1       2.897  89.743  62.270  0.00  0.00    +0.000 OA
ATOM     15  H20 UNL     1       3.522  89.836  63.062  0.00  0.00    +0.000 HD
ENDBRANCH   8  14
ENDBRANCH   4  11
ENDBRANCH   2   5
ENDBRANCH   1   2
BRANCH   1  16
ATOM     16  C12 UNL     1      -4.078  85.148  61.301  0.00  0.00    +0.000 C 
ATOM     17  O3  UNL     1      -4.331  83.947  61.587  0.00  0.00    +0.000 OA
BRANCH  16  18
ATOM     18  C13 UNL     1      -2.689  85.497  60.931  0.00  0.00    +0.000 C 
ATOM     19  C14 UNL     1      -1.614  85.072  61.613  0.00  0.00    +0.000 C 
BRANCH  19  20
ATOM     20  C15 UNL     1      -0.220  85.410  61.236  0.00  0.00    +0.000 A 
ATOM     21  C16 UNL     1       0.118  85.921  59.966  0.00  0.00    +0.000 A 
ATOM     22  C17 UNL     1       1.454  86.239  59.653  0.00  0.00    +0.000 A 
ATOM     23  C18 UNL     1       2.451  86.055  60.621  0.00  0.00    +0.000 A 
ATOM     24  C19 UNL     1       2.116  85.566  61.888  0.00  0.00    +0.000 A 
ATOM     25  C20 UNL     1       0.791  85.252  62.196  0.00  0.00    +0.000 A 
BRANCH  23  26
ATOM     26  O4  UNL     1       3.774  86.366  60.315  0.00  0.00    +0.000 OA
ATOM     27  H16 UNL     1       4.389  85.694  59.867  0.00  0.00    +0.000 HD
ENDBRANCH  23  26
BRANCH  22  28
ATOM     28  O5  UNL     1       1.830  86.742  58.396  0.00  0.00    +0.000 OA
ATOM     29  C21 UNL     1       1.540  88.058  57.935  0.00  0.00    +0.000 C 
ENDBRANCH  22  28
ENDBRANCH  19  20
ENDBRANCH  16  18
ENDBRANCH   1  16
TORSDOF 10
ENDMDL
MODEL 5
REMARK VINA RESULT:      -3.5      1.876      3.230
REMARK  Name = .\curcumin.pdb
REMARK  12 active torsions:
REMARK  status: ('A' for Active; 'I' for Inactive)
REMARK    1  A    between atoms: C1_1  and  O1_2
REMARK    2  A    between atoms: O1_2  and  C2_3
REMARK    3  A    between atoms: C4_5  and  O6_27
REMARK    4  A    between atoms: C7_8  and  C8_9
REMARK    5  A    between atoms: C9_10  and  C10_11
REMARK    6  A    between atoms: C10_11  and  C11_13
REMARK    7  A    between atoms: C11_13  and  C12_14
REMARK    8  A    between atoms: C12_14  and  C13_16
REMARK    9  A    between atoms: C14_17  and  C15_18
REMARK   10  A    between atoms: C17_20  and  O5_25
REMARK   11  A    between atoms: C18_21  and  O4_24
REMARK   12  A    between atoms: O5_25  and  C21_26
REMARK                            x       y       z     vdW  Elec       q    Type
REMARK                         _______ _______ _______ _____ _____    ______ ____
ROOT
ATOM      1  C11 UNL     1      -5.582  85.647  60.887  0.00  0.00    +0.000 C 
ENDROOT
BRANCH   1   2
ATOM      2  C10 UNL     1      -5.561  86.969  61.602  0.00  0.00    +0.000 C 
ATOM      3  O2  UNL     1      -6.515  87.776  61.436  0.00  0.00    +0.000 OA
BRANCH   2   5
ATOM      4  C8  UNL     1      -3.761  88.438  62.429  0.00  0.00    +0.000 C 
ATOM      5  C9  UNL     1      -4.449  87.293  62.517  0.00  0.00    +0.000 C 
BRANCH   4  11
ATOM      6  C2  UNL     1      -2.914  89.266  64.675  0.00  0.00    +0.000 A 
ATOM      7  C3  UNL     1      -1.822  89.594  65.504  0.00  0.00    +0.000 A 
ATOM      8  C4  UNL     1      -0.508  89.422  65.052  0.00  0.00    +0.000 A 
ATOM      9  C5  UNL     1      -0.274  88.918  63.772  0.00  0.00    +0.000 A 
ATOM     10  C6  UNL     1      -1.345  88.599  62.937  0.00  0.00    +0.000 A 
ATOM     11  C7  UNL     1      -2.669  88.791  63.364  0.00  0.00    +0.000 A 
BRANCH   6  13
ATOM     12  C1  UNL     1      -4.795  88.610  66.197  0.00  0.00    +0.000 C 
ATOM     13  O1  UNL     1      -4.239  89.374  65.132  0.00  0.00    +0.000 OA
ENDBRANCH   6  13
BRANCH   8  14
ATOM     14  O6  UNL     1       0.572  89.742  65.872  0.00  0.00    +0.000 OA
ATOM     15  H20 UNL     1       0.882  90.699  65.994  0.00  0.00    +0.000 HD
ENDBRANCH   8  14
ENDBRANCH   4  11
ENDBRANCH   2   5
ENDBRANCH   1   2
BRANCH   1  16
ATOM     16  C12 UNL     1      -4.384  84.789  61.222  0.00  0.00    +0.000 C 
ATOM     17  O3  UNL     1      -4.545  83.673  61.786  0.00  0.00    +0.000 OA
BRANCH  16  18
ATOM     18  C13 UNL     1      -3.003  85.216  60.910  0.00  0.00    +0.000 C 
ATOM     19  C14 UNL     1      -1.948  84.937  61.692  0.00  0.00    +0.000 C 
BRANCH  19  20
ATOM     20  C15 UNL     1      -0.561  85.354  61.374  0.00  0.00    +0.000 A 
ATOM     21  C16 UNL     1      -0.157  85.708  60.070  0.00  0.00    +0.000 A 
ATOM     22  C17 UNL     1       1.169  86.108  59.813  0.00  0.00    +0.000 A 
ATOM     23  C18 UNL     1       2.088  86.165  60.870  0.00  0.00    +0.000 A 
ATOM     24  C19 UNL     1       1.686  85.833  62.168  0.00  0.00    +0.000 A 
ATOM     25  C20 UNL     1       0.371  85.437  62.419  0.00  0.00    +0.000 A 
BRANCH  23  26
ATOM     26  O4  UNL     1       3.401  86.559  60.621  0.00  0.00    +0.000 OA
ATOM     27  H16 UNL     1       3.835  87.318  61.136  0.00  0.00    +0.000 HD
ENDBRANCH  23  26
BRANCH  22  28
ATOM     28  O5  UNL     1       1.610  86.461  58.527  0.00  0.00    +0.000 OA
ATOM     29  C21 UNL     1       1.583  87.783  57.999  0.00  0.00    +0.000 C 
ENDBRANCH  22  28
ENDBRANCH  19  20
ENDBRANCH  16  18
ENDBRANCH   1  16
TORSDOF 10
ENDMDL
MODEL 6
REMARK VINA RESULT:      -3.3      1.916      4.331
REMARK  Name = .\curcumin.pdb
REMARK  12 active torsions:
REMARK  status: ('A' for Active; 'I' for Inactive)
REMARK    1  A    between atoms: C1_1  and  O1_2
REMARK    2  A    between atoms: O1_2  and  C2_3
REMARK    3  A    between atoms: C4_5  and  O6_27
REMARK    4  A    between atoms: C7_8  and  C8_9
REMARK    5  A    between atoms: C9_10  and  C10_11
REMARK    6  A    between atoms: C10_11  and  C11_13
REMARK    7  A    between atoms: C11_13  and  C12_14
REMARK    8  A    between atoms: C12_14  and  C13_16
REMARK    9  A    between atoms: C14_17  and  C15_18
REMARK   10  A    between atoms: C17_20  and  O5_25
REMARK   11  A    between atoms: C18_21  and  O4_24
REMARK   12  A    between atoms: O5_25  and  C21_26
REMARK                            x       y       z     vdW  Elec       q    Type
REMARK                         _______ _______ _______ _____ _____    ______ ____
ROOT
ATOM      1  C11 UNL     1      -5.578  89.493  64.041  0.00  0.00    +0.000 C 
ENDROOT
BRANCH   1   2
ATOM      2  C10 UNL     1      -5.295  88.879  62.699  0.00  0.00    +0.000 C 
ATOM      3  O2  UNL     1      -5.989  89.222  61.705  0.00  0.00    +0.000 OA
BRANCH   2   5
ATOM      4  C8  UNL     1      -3.161  88.131  61.713  0.00  0.00    +0.000 C 
ATOM      5  C9  UNL     1      -4.186  87.916  62.548  0.00  0.00    +0.000 C 
BRANCH   4  11
ATOM      6  C2  UNL     1      -2.182  85.876  61.077  0.00  0.00    +0.000 A 
ATOM      7  C3  UNL     1      -1.055  85.033  60.991  0.00  0.00    +0.000 A 
ATOM      8  C4  UNL     1       0.211  85.496  61.369  0.00  0.00    +0.000 A 
ATOM      9  C5  UNL     1       0.363  86.805  61.829  0.00  0.00    +0.000 A 
ATOM     10  C6  UNL     1      -0.744  87.647  61.928  0.00  0.00    +0.000 A 
ATOM     11  C7  UNL     1      -2.026  87.190  61.580  0.00  0.00    +0.000 A 
BRANCH   6  13
ATOM     12  C1  UNL     1      -4.262  84.499  61.327  0.00  0.00    +0.000 C 
ATOM     13  O1  UNL     1      -3.450  85.450  60.646  0.00  0.00    +0.000 OA
ENDBRANCH   6  13
BRANCH   8  14
ATOM     14  O6  UNL     1       1.326  84.666  61.281  0.00  0.00    +0.000 OA
ATOM     15  H20 UNL     1       1.840  84.378  62.106  0.00  0.00    +0.000 HD
ENDBRANCH   8  14
ENDBRANCH   4  11
ENDBRANCH   2   5
ENDBRANCH   1   2
BRANCH   1  16
ATOM     16  C12 UNL     1      -4.855  88.786  65.164  0.00  0.00    +0.000 C 
ATOM     17  O3  UNL     1      -5.511  88.252  66.099  0.00  0.00    +0.000 OA
BRANCH  16  18
ATOM     18  C13 UNL     1      -3.380  88.694  65.210  0.00  0.00    +0.000 C 
ATOM     19  C14 UNL     1      -2.719  87.562  65.499  0.00  0.00    +0.000 C 
BRANCH  19  20
ATOM     20  C15 UNL     1      -1.239  87.464  65.533  0.00  0.00    +0.000 A 
ATOM     21  C16 UNL     1      -0.556  86.248  65.327  0.00  0.00    +0.000 A 
ATOM     22  C17 UNL     1       0.852  86.201  65.357  0.00  0.00    +0.000 A 
ATOM     23  C18 UNL     1       1.575  87.380  65.583  0.00  0.00    +0.000 A 
ATOM     24  C19 UNL     1       0.901  88.592  65.769  0.00  0.00    +0.000 A 
ATOM     25  C20 UNL     1      -0.494  88.635  65.738  0.00  0.00    +0.000 A 
BRANCH  23  26
ATOM     26  O4  UNL     1       2.968  87.338  65.616  0.00  0.00    +0.000 OA
ATOM     27  H16 UNL     1       3.482  86.516  65.317  0.00  0.00    +0.000 HD
ENDBRANCH  23  26
BRANCH  22  28
ATOM     28  O5  UNL     1       1.566  85.007  65.164  0.00  0.00    +0.000 OA
ATOM     29  C21 UNL     1       1.956  84.121  66.209  0.00  0.00    +0.000 C 
ENDBRANCH  22  28
ENDBRANCH  19  20
ENDBRANCH  16  18
ENDBRANCH   1  16
TORSDOF 10
ENDMDL
MODEL 7
REMARK VINA RESULT:      -3.2      1.606      4.471
REMARK  Name = .\curcumin.pdb
REMARK  12 active torsions:
REMARK  status: ('A' for Active; 'I' for Inactive)
REMARK    1  A    between atoms: C1_1  and  O1_2
REMARK    2  A    between atoms: O1_2  and  C2_3
REMARK    3  A    between atoms: C4_5  and  O6_27
REMARK    4  A    between atoms: C7_8  and  C8_9
REMARK    5  A    between atoms: C9_10  and  C10_11
REMARK    6  A    between atoms: C10_11  and  C11_13
REMARK    7  A    between atoms: C11_13  and  C12_14
REMARK    8  A    between atoms: C12_14  and  C13_16
REMARK    9  A    between atoms: C14_17  and  C15_18
REMARK   10  A    between atoms: C17_20  and  O5_25
REMARK   11  A    between atoms: C18_21  and  O4_24
REMARK   12  A    between atoms: O5_25  and  C21_26
REMARK                            x       y       z     vdW  Elec       q    Type
REMARK                         _______ _______ _______ _____ _____    ______ ____
ROOT
ATOM      1  C11 UNL     1      -5.904  85.785  60.958  0.00  0.00    +0.000 C 
ENDROOT
BRANCH   1   2
ATOM      2  C10 UNL     1      -4.706  84.897  61.148  0.00  0.00    +0.000 C 
ATOM      3  O2  UNL     1      -4.844  83.795  61.744  0.00  0.00    +0.000 OA
BRANCH   2   5
ATOM      4  C8  UNL     1      -2.278  85.282  61.339  0.00  0.00    +0.000 C 
ATOM      5  C9  UNL     1      -3.396  85.300  60.602  0.00  0.00    +0.000 C 
BRANCH   4  11
ATOM      6  C2  UNL     1      -0.527  86.994  60.669  0.00  0.00    +0.000 A 
ATOM      7  C3  UNL     1       0.747  87.266  60.128  0.00  0.00    +0.000 A 
ATOM      8  C4  UNL     1       1.596  86.221  59.745  0.00  0.00    +0.000 A 
ATOM      9  C5  UNL     1       1.185  84.897  59.905  0.00  0.00    +0.000 A 
ATOM     10  C6  UNL     1      -0.076  84.613  60.430  0.00  0.00    +0.000 A 
ATOM     11  C7  UNL     1      -0.952  85.649  60.793  0.00  0.00    +0.000 A 
BRANCH   6  13
ATOM     12  C1  UNL     1      -1.013  89.405  61.154  0.00  0.00    +0.000 C 
ATOM     13  O1  UNL     1      -1.369  88.026  61.115  0.00  0.00    +0.000 OA
ENDBRANCH   6  13
BRANCH   8  14
ATOM     14  O6  UNL     1       2.856  86.488  59.214  0.00  0.00    +0.000 OA
ATOM     15  H20 UNL     1       2.976  86.773  58.249  0.00  0.00    +0.000 HD
ENDBRANCH   8  14
ENDBRANCH   4  11
ENDBRANCH   2   5
ENDBRANCH   1   2
BRANCH   1  16
ATOM     16  C12 UNL     1      -5.780  87.089  61.713  0.00  0.00    +0.000 C 
ATOM     17  O3  UNL     1      -6.792  87.825  61.869  0.00  0.00    +0.000 OA
BRANCH  16  18
ATOM     18  C13 UNL     1      -4.495  87.544  62.285  0.00  0.00    +0.000 C 
ATOM     19  C14 UNL     1      -4.204  87.478  63.593  0.00  0.00    +0.000 C 
BRANCH  19  20
ATOM     20  C15 UNL     1      -2.910  87.922  64.168  0.00  0.00    +0.000 A 
ATOM     21  C16 UNL     1      -1.827  87.040  64.365  0.00  0.00    +0.000 A 
ATOM     22  C17 UNL     1      -0.612  87.506  64.904  0.00  0.00    +0.000 A 
ATOM     23  C18 UNL     1      -0.480  88.861  65.235  0.00  0.00    +0.000 A 
ATOM     24  C19 UNL     1      -1.546  89.742  65.024  0.00  0.00    +0.000 A 
ATOM     25  C20 UNL     1      -2.749  89.278  64.489  0.00  0.00    +0.000 A 
BRANCH  23  26
ATOM     26  O4  UNL     1       0.720  89.326  65.771  0.00  0.00    +0.000 OA
ATOM     27  H16 UNL     1       0.931  90.317  65.818  0.00  0.00    +0.000 HD
ENDBRANCH  23  26
BRANCH  22  28
ATOM     28  O5  UNL     1       0.486  86.657  65.121  0.00  0.00    +0.000 OA
ATOM     29  C21 UNL     1       1.369  86.203  64.100  0.00  0.00    +0.000 C 
ENDBRANCH  22  28
ENDBRANCH  19  20
ENDBRANCH  16  18
ENDBRANCH   1  16
TORSDOF 10
ENDMDL
MODEL 8
REMARK VINA RESULT:      -2.7      1.601      2.330
REMARK  Name = .\curcumin.pdb
REMARK  12 active torsions:
REMARK  status: ('A' for Active; 'I' for Inactive)
REMARK    1  A    between atoms: C1_1  and  O1_2
REMARK    2  A    between atoms: O1_2  and  C2_3
REMARK    3  A    between atoms: C4_5  and  O6_27
REMARK    4  A    between atoms: C7_8  and  C8_9
REMARK    5  A    between atoms: C9_10  and  C10_11
REMARK    6  A    between atoms: C10_11  and  C11_13
REMARK    7  A    between atoms: C11_13  and  C12_14
REMARK    8  A    between atoms: C12_14  and  C13_16
REMARK    9  A    between atoms: C14_17  and  C15_18
REMARK   10  A    between atoms: C17_20  and  O5_25
REMARK   11  A    between atoms: C18_21  and  O4_24
REMARK   12  A    between atoms: O5_25  and  C21_26
REMARK                            x       y       z     vdW  Elec       q    Type
REMARK                         _______ _______ _______ _____ _____    ______ ____
ROOT
ATOM      1  C11 UNL     1      -5.401  85.719  61.012  0.00  0.00    +0.000 C 
ENDROOT
BRANCH   1   2
ATOM      2  C10 UNL     1      -5.207  87.002  61.769  0.00  0.00    +0.000 C 
ATOM      3  O2  UNL     1      -6.166  87.814  61.864  0.00  0.00    +0.000 OA
BRANCH   2   5
ATOM      4  C8  UNL     1      -3.144  88.320  62.076  0.00  0.00    +0.000 C 
ATOM      5  C9  UNL     1      -3.915  87.283  62.426  0.00  0.00    +0.000 C 
BRANCH   4  11
ATOM      6  C2  UNL     1      -1.601  88.255  64.090  0.00  0.00    +0.000 A 
ATOM      7  C3  UNL     1      -0.362  88.598  64.670  0.00  0.00    +0.000 A 
ATOM      8  C4  UNL     1       0.610  89.277  63.925  0.00  0.00    +0.000 A 
ATOM      9  C5  UNL     1       0.356  89.613  62.595  0.00  0.00    +0.000 A 
ATOM     10  C6  UNL     1      -0.869  89.288  62.011  0.00  0.00    +0.000 A 
ATOM     11  C7  UNL     1      -1.865  88.632  62.752  0.00  0.00    +0.000 A 
BRANCH   6  13
ATOM     12  C1  UNL     1      -3.375  88.044  65.848  0.00  0.00    +0.000 C 
ATOM     13  O1  UNL     1      -2.564  87.520  64.802  0.00  0.00    +0.000 OA
ENDBRANCH   6  13
BRANCH   8  14
ATOM     14  O6  UNL     1       1.835  89.614  64.496  0.00  0.00    +0.000 OA
ATOM     15  H20 UNL     1       2.685  89.653  63.946  0.00  0.00    +0.000 HD
ENDBRANCH   8  14
ENDBRANCH   4  11
ENDBRANCH   2   5
ENDBRANCH   1   2
BRANCH   1  16
ATOM     16  C12 UNL     1      -4.270  84.740  61.234  0.00  0.00    +0.000 C 
ATOM     17  O3  UNL     1      -4.515  83.583  61.668  0.00  0.00    +0.000 OA
BRANCH  16  18
ATOM     18  C13 UNL     1      -2.862  85.096  60.957  0.00  0.00    +0.000 C 
ATOM     19  C14 UNL     1      -1.886  85.018  61.875  0.00  0.00    +0.000 C 
BRANCH  19  20
ATOM     20  C15 UNL     1      -0.470  85.362  61.596  0.00  0.00    +0.000 A 
ATOM     21  C16 UNL     1       0.414  85.801  62.603  0.00  0.00    +0.000 A 
ATOM     22  C17 UNL     1       1.755  86.108  62.297  0.00  0.00    +0.000 A 
ATOM     23  C18 UNL     1       2.211  85.962  60.980  0.00  0.00    +0.000 A 
ATOM     24  C19 UNL     1       1.341  85.508  59.982  0.00  0.00    +0.000 A 
ATOM     25  C20 UNL     1       0.013  85.205  60.289  0.00  0.00    +0.000 A 
BRANCH  23  26
ATOM     26  O4  UNL     1       3.536  86.265  60.671  0.00  0.00    +0.000 OA
ATOM     27  H16 UNL     1       4.235  86.390  61.396  0.00  0.00    +0.000 HD
ENDBRANCH  23  26
BRANCH  22  28
ATOM     28  O5  UNL     1       2.663  86.554  63.271  0.00  0.00    +0.000 OA
ATOM     29  C21 UNL     1       2.960  85.858  64.477  0.00  0.00    +0.000 C 
ENDBRANCH  22  28
ENDBRANCH  19  20
ENDBRANCH  16  18
ENDBRANCH   1  16
TORSDOF 10
ENDMDL
MODEL 9
REMARK VINA RESULT:      -2.4      1.642      2.029
REMARK  Name = .\curcumin.pdb
REMARK  12 active torsions:
REMARK  status: ('A' for Active; 'I' for Inactive)
REMARK    1  A    between atoms: C1_1  and  O1_2
REMARK    2  A    between atoms: O1_2  and  C2_3
REMARK    3  A    between atoms: C4_5  and  O6_27
REMARK    4  A    between atoms: C7_8  and  C8_9
REMARK    5  A    between atoms: C9_10  and  C10_11
REMARK    6  A    between atoms: C10_11  and  C11_13
REMARK    7  A    between atoms: C11_13  and  C12_14
REMARK    8  A    between atoms: C12_14  and  C13_16
REMARK    9  A    between atoms: C14_17  and  C15_18
REMARK   10  A    between atoms: C17_20  and  O5_25
REMARK   11  A    between atoms: C18_21  and  O4_24
REMARK   12  A    between atoms: O5_25  and  C21_26
REMARK                            x       y       z     vdW  Elec       q    Type
REMARK                         _______ _______ _______ _____ _____    ______ ____
ROOT
ATOM      1  C11 UNL     1      -5.933  84.746  60.870  0.00  0.00    +0.000 C 
ENDROOT
BRANCH   1   2
ATOM      2  C10 UNL     1      -5.839  86.218  61.161  0.00  0.00    +0.000 C 
ATOM      3  O2  UNL     1      -6.606  87.016  60.559  0.00  0.00    +0.000 OA
BRANCH   2   5
ATOM      4  C8  UNL     1      -4.197  87.848  62.016  0.00  0.00    +0.000 C 
ATOM      5  C9  UNL     1      -4.884  86.710  62.174  0.00  0.00    +0.000 C 
BRANCH   4  11
ATOM      6  C2  UNL     1      -2.217  89.268  62.725  0.00  0.00    +0.000 A 
ATOM      7  C3  UNL     1      -1.359  89.713  63.753  0.00  0.00    +0.000 A 
ATOM      8  C4  UNL     1      -1.558  89.298  65.076  0.00  0.00    +0.000 A 
ATOM      9  C5  UNL     1      -2.616  88.442  65.383  0.00  0.00    +0.000 A 
ATOM     10  C6  UNL     1      -3.466  87.986  64.375  0.00  0.00    +0.000 A 
ATOM     11  C7  UNL     1      -3.264  88.370  63.040  0.00  0.00    +0.000 A 
BRANCH   6  13
ATOM     12  C1  UNL     1      -1.191  89.149  60.441  0.00  0.00    +0.000 C 
ATOM     13  O1  UNL     1      -2.070  89.721  61.403  0.00  0.00    +0.000 OA
ENDBRANCH   6  13
BRANCH   8  14
ATOM     14  O6  UNL     1      -0.714  89.739  66.093  0.00  0.00    +0.000 OA
ATOM     15  H20 UNL     1      -0.995  90.470  66.736  0.00  0.00    +0.000 HD
ENDBRANCH   8  14
ENDBRANCH   4  11
ENDBRANCH   2   5
ENDBRANCH   1   2
BRANCH   1  16
ATOM     16  C12 UNL     1      -4.629  84.024  61.122  0.00  0.00    +0.000 C 
ATOM     17  O3  UNL     1      -4.638  82.829  61.523  0.00  0.00    +0.000 OA
BRANCH  16  18
ATOM     18  C13 UNL     1      -3.319  84.677  60.912  0.00  0.00    +0.000 C 
ATOM     19  C14 UNL     1      -2.373  84.756  61.860  0.00  0.00    +0.000 C 
BRANCH  19  20
ATOM     20  C15 UNL     1      -1.053  85.400  61.648  0.00  0.00    +0.000 A 
ATOM     21  C16 UNL     1      -0.430  86.191  62.635  0.00  0.00    +0.000 A 
ATOM     22  C17 UNL     1       0.830  86.776  62.397  0.00  0.00    +0.000 A 
ATOM     23  C18 UNL     1       1.469  86.555  61.169  0.00  0.00    +0.000 A 
ATOM     24  C19 UNL     1       0.862  85.756  60.195  0.00  0.00    +0.000 A 
ATOM     25  C20 UNL     1      -0.386  85.177  60.435  0.00  0.00    +0.000 A 
BRANCH  23  26
ATOM     26  O4  UNL     1       2.714  87.133  60.928  0.00  0.00    +0.000 OA
ATOM     27  H16 UNL     1       2.850  88.138  60.965  0.00  0.00    +0.000 HD
ENDBRANCH  23  26
BRANCH  22  28
ATOM     28  O5  UNL     1       1.478  87.575  63.352  0.00  0.00    +0.000 OA
ATOM     29  C21 UNL     1       2.473  87.106  64.256  0.00  0.00    +0.000 C 
ENDBRANCH  22  28
ENDBRANCH  19  20
ENDBRANCH  16  18
ENDBRANCH   1  16
TORSDOF 10
ENDMDL
