MODEL 1
REMARK VINA RESULT:      -4.6      0.000      0.000
REMARK  Name = .\curcumin.pdb
REMARK  12 active torsions:
REMARK  status: ('A' for Active; 'I' for Inactive)
REMARK    1  A    between atoms: C1_1  and  O1_2
REMARK    2  A    between atoms: O1_2  and  C2_3
REMARK    3  A    between atoms: C4_5  and  O6_27
REMARK    4  A    between atoms: C7_8  and  C8_9
REMARK    5  A    between atoms: C9_10  and  C10_11
REMARK    6  A    between atoms: C10_11  and  C11_13
REMARK    7  A    between atoms: C11_13  and  C12_14
REMARK    8  A    between atoms: C12_14  and  C13_16
REMARK    9  A    between atoms: C14_17  and  C15_18
REMARK   10  A    between atoms: C17_20  and  O5_25
REMARK   11  A    between atoms: C18_21  and  O4_24
REMARK   12  A    between atoms: O5_25  and  C21_26
REMARK                            x       y       z     vdW  Elec       q    Type
REMARK                         _______ _______ _______ _____ _____    ______ ____
ROOT
ATOM      1  C11 UNL     1       1.132  91.296 142.378  0.00  0.00    +0.000 C 
ENDROOT
BRANCH   1   2
ATOM      2  C10 UNL     1       2.631  91.390 142.326  0.00  0.00    +0.000 C 
ATOM      3  O2  UNL     1       3.313  90.334 142.225  0.00  0.00    +0.000 OA
BRANCH   2   5
ATOM      4  C8  UNL     1       2.655  93.817 142.762  0.00  0.00    +0.000 C 
ATOM      5  C9  UNL     1       3.289  92.711 142.353  0.00  0.00    +0.000 C 
BRANCH   4  11
ATOM      6  C2  UNL     1       2.628  96.312 143.228  0.00  0.00    +0.000 A 
ATOM      7  C3  UNL     1       3.320  97.541 143.254  0.00  0.00    +0.000 A 
ATOM      8  C4  UNL     1       4.679  97.600 142.920  0.00  0.00    +0.000 A 
ATOM      9  C5  UNL     1       5.357  96.434 142.562  0.00  0.00    +0.000 A 
ATOM     10  C6  UNL     1       4.683  95.214 142.523  0.00  0.00    +0.000 A 
ATOM     11  C7  UNL     1       3.314  95.141 142.828  0.00  0.00    +0.000 A 
BRANCH   6  13
ATOM     12  C1  UNL     1       0.330  97.277 143.505  0.00  0.00    +0.000 C 
ATOM     13  O1  UNL     1       1.281  96.223 143.619  0.00  0.00    +0.000 OA
ENDBRANCH   6  13
BRANCH   8  14
ATOM     14  O6  UNL     1       5.365  98.812 142.949  0.00  0.00    +0.000 OA
ATOM     15  H20 UNL     1       5.464  99.346 143.805  0.00  0.00    +0.000 HD
ENDBRANCH   8  14
ENDBRANCH   4  11
ENDBRANCH   2   5
ENDBRANCH   1   2
BRANCH   1  16
ATOM     16  C12 UNL     1       0.509  91.241 141.002  0.00  0.00    +0.000 C 
ATOM     17  O3  UNL     1      -0.177  90.241 140.660  0.00  0.00    +0.000 OA
BRANCH  16  18
ATOM     18  C13 UNL     1       0.676  92.337 140.022  0.00  0.00    +0.000 C 
ATOM     19  C14 UNL     1       1.286  92.181 138.837  0.00  0.00    +0.000 C 
BRANCH  19  20
ATOM     20  C15 UNL     1       1.444  93.275 137.848  0.00  0.00    +0.000 A 
ATOM     21  C16 UNL     1       2.346  94.342 138.038  0.00  0.00    +0.000 A 
ATOM     22  C17 UNL     1       2.473  95.356 137.068  0.00  0.00    +0.000 A 
ATOM     23  C18 UNL     1       1.702  95.291 135.900  0.00  0.00    +0.000 A 
ATOM     24  C19 UNL     1       0.820  94.224 135.699  0.00  0.00    +0.000 A 
ATOM     25  C20 UNL     1       0.696  93.220 136.662  0.00  0.00    +0.000 A 
BRANCH  23  26
ATOM     26  O4  UNL     1       1.822  96.293 134.938  0.00  0.00    +0.000 OA
ATOM     27  H16 UNL     1       2.084  97.240 135.188  0.00  0.00    +0.000 HD
ENDBRANCH  23  26
BRANCH  22  28
ATOM     28  O5  UNL     1       3.355  96.438 137.226  0.00  0.00    +0.000 OA
ATOM     29  C21 UNL     1       4.169  96.655 138.374  0.00  0.00    +0.000 C 
ENDBRANCH  22  28
ENDBRANCH  19  20
ENDBRANCH  16  18
ENDBRANCH   1  16
TORSDOF 10
ENDMDL
MODEL 2
REMARK VINA RESULT:      -3.1      2.606      3.469
REMARK  Name = .\curcumin.pdb
REMARK  12 active torsions:
REMARK  status: ('A' for Active; 'I' for Inactive)
REMARK    1  A    between atoms: C1_1  and  O1_2
REMARK    2  A    between atoms: O1_2  and  C2_3
REMARK    3  A    between atoms: C4_5  and  O6_27
REMARK    4  A    between atoms: C7_8  and  C8_9
REMARK    5  A    between atoms: C9_10  and  C10_11
REMARK    6  A    between atoms: C10_11  and  C11_13
REMARK    7  A    between atoms: C11_13  and  C12_14
REMARK    8  A    between atoms: C12_14  and  C13_16
REMARK    9  A    between atoms: C14_17  and  C15_18
REMARK   10  A    between atoms: C17_20  and  O5_25
REMARK   11  A    between atoms: C18_21  and  O4_24
REMARK   12  A    between atoms: O5_25  and  C21_26
REMARK                            x       y       z     vdW  Elec       q    Type
REMARK                         _______ _______ _______ _____ _____    ______ ____
ROOT
ATOM      1  C11 UNL     1       2.694  92.365 141.501  0.00  0.00    +0.000 C 
ENDROOT
BRANCH   1   2
ATOM      2  C10 UNL     1       1.877  92.450 142.760  0.00  0.00    +0.000 C 
ATOM      3  O2  UNL     1       2.124  91.659 143.711  0.00  0.00    +0.000 OA
BRANCH   2   5
ATOM      4  C8  UNL     1       1.084  94.713 143.337  0.00  0.00    +0.000 C 
ATOM      5  C9  UNL     1       0.825  93.477 142.889  0.00  0.00    +0.000 C 
BRANCH   4  11
ATOM      6  C2  UNL     1      -1.328  95.460 143.598  0.00  0.00    +0.000 A 
ATOM      7  C3  UNL     1      -2.262  96.514 143.672  0.00  0.00    +0.000 A 
ATOM      8  C4  UNL     1      -1.836  97.847 143.619  0.00  0.00    +0.000 A 
ATOM      9  C5  UNL     1      -0.477  98.138 143.496  0.00  0.00    +0.000 A 
ATOM     10  C6  UNL     1       0.456  97.105 143.412  0.00  0.00    +0.000 A 
ATOM     11  C7  UNL     1       0.044  95.763 143.436  0.00  0.00    +0.000 A 
BRANCH   6  13
ATOM     12  C1  UNL     1      -2.872  93.555 143.074  0.00  0.00    +0.000 C 
ATOM     13  O1  UNL     1      -1.730  94.118 143.711  0.00  0.00    +0.000 OA
ENDBRANCH   6  13
BRANCH   8  14
ATOM     14  O6  UNL     1      -2.757  98.890 143.696  0.00  0.00    +0.000 OA
ATOM     15  H20 UNL     1      -2.539  99.757 144.175  0.00  0.00    +0.000 HD
ENDBRANCH   8  14
ENDBRANCH   4  11
ENDBRANCH   2   5
ENDBRANCH   1   2
BRANCH   1  16
ATOM     16  C12 UNL     1       1.835  92.234 140.264  0.00  0.00    +0.000 C 
ATOM     17  O3  UNL     1       1.084  91.232 140.121  0.00  0.00    +0.000 OA
BRANCH  16  18
ATOM     18  C13 UNL     1       1.843  93.255 139.194  0.00  0.00    +0.000 C 
ATOM     19  C14 UNL     1       1.254  93.079 138.001  0.00  0.00    +0.000 C 
BRANCH  19  20
ATOM     20  C15 UNL     1       1.251  94.106 136.930  0.00  0.00    +0.000 A 
ATOM     21  C16 UNL     1       2.124  95.213 136.941  0.00  0.00    +0.000 A 
ATOM     22  C17 UNL     1       2.095  96.160 135.899  0.00  0.00    +0.000 A 
ATOM     23  C18 UNL     1       1.195  95.989 134.838  0.00  0.00    +0.000 A 
ATOM     24  C19 UNL     1       0.339  94.882 134.815  0.00  0.00    +0.000 A 
ATOM     25  C20 UNL     1       0.371  93.945 135.850  0.00  0.00    +0.000 A 
BRANCH  23  26
ATOM     26  O4  UNL     1       1.160  96.924 133.806  0.00  0.00    +0.000 OA
ATOM     27  H16 UNL     1       0.326  97.467 133.608  0.00  0.00    +0.000 HD
ENDBRANCH  23  26
BRANCH  22  28
ATOM     28  O5  UNL     1       2.944  97.279 135.878  0.00  0.00    +0.000 OA
ATOM     29  C21 UNL     1       2.650  98.527 136.498  0.00  0.00    +0.000 C 
ENDBRANCH  22  28
ENDBRANCH  19  20
ENDBRANCH  16  18
ENDBRANCH   1  16
TORSDOF 10
ENDMDL
MODEL 3
REMARK VINA RESULT:      -2.5      1.951      5.653
REMARK  Name = .\curcumin.pdb
REMARK  12 active torsions:
REMARK  status: ('A' for Active; 'I' for Inactive)
REMARK    1  A    between atoms: C1_1  and  O1_2
REMARK    2  A    between atoms: O1_2  and  C2_3
REMARK    3  A    between atoms: C4_5  and  O6_27
REMARK    4  A    between atoms: C7_8  and  C8_9
REMARK    5  A    between atoms: C9_10  and  C10_11
REMARK    6  A    between atoms: C10_11  and  C11_13
REMARK    7  A    between atoms: C11_13  and  C12_14
REMARK    8  A    between atoms: C12_14  and  C13_16
REMARK    9  A    between atoms: C14_17  and  C15_18
REMARK   10  A    between atoms: C17_20  and  O5_25
REMARK   11  A    between atoms: C18_21  and  O4_24
REMARK   12  A    between atoms: O5_25  and  C21_26
REMARK                            x       y       z     vdW  Elec       q    Type
REMARK                         _______ _______ _______ _____ _____    ______ ____
ROOT
ATOM      1  C11 UNL     1       0.180  90.426 141.882  0.00  0.00    +0.000 C 
ENDROOT
BRANCH   1   2
ATOM      2  C10 UNL     1       0.926  90.193 140.598  0.00  0.00    +0.000 C 
ATOM      3  O2  UNL     1       0.854  89.065 140.039  0.00  0.00    +0.000 OA
BRANCH   2   5
ATOM      4  C8  UNL     1       1.129  92.441 139.606  0.00  0.00    +0.000 C 
ATOM      5  C9  UNL     1       1.699  91.290 139.984  0.00  0.00    +0.000 C 
BRANCH   4  11
ATOM      6  C2  UNL     1       1.685  94.028 137.703  0.00  0.00    +0.000 A 
ATOM      7  C3  UNL     1       2.466  95.094 137.213  0.00  0.00    +0.000 A 
ATOM      8  C4  UNL     1       3.423  95.710 138.029  0.00  0.00    +0.000 A 
ATOM      9  C5  UNL     1       3.603  95.270 139.341  0.00  0.00    +0.000 A 
ATOM     10  C6  UNL     1       2.844  94.210 139.836  0.00  0.00    +0.000 A 
ATOM     11  C7  UNL     1       1.900  93.563 139.023  0.00  0.00    +0.000 A 
BRANCH   6  13
ATOM     12  C1  UNL     1       0.263  93.907 135.642  0.00  0.00    +0.000 C 
ATOM     13  O1  UNL     1       0.678  93.438 136.920  0.00  0.00    +0.000 OA
ENDBRANCH   6  13
BRANCH   8  14
ATOM     14  O6  UNL     1       4.194  96.766 137.547  0.00  0.00    +0.000 OA
ATOM     15  H20 UNL     1       3.792  97.498 136.974  0.00  0.00    +0.000 HD
ENDBRANCH   8  14
ENDBRANCH   4  11
ENDBRANCH   2   5
ENDBRANCH   1   2
BRANCH   1  16
ATOM     16  C12 UNL     1       0.998  91.197 142.893  0.00  0.00    +0.000 C 
ATOM     17  O3  UNL     1       1.944  90.630 143.503  0.00  0.00    +0.000 OA
BRANCH  16  18
ATOM     18  C13 UNL     1       0.726  92.618 143.199  0.00  0.00    +0.000 C 
ATOM     19  C14 UNL     1      -0.078  93.394 142.454  0.00  0.00    +0.000 C 
BRANCH  19  20
ATOM     20  C15 UNL     1      -0.362  94.816 142.767  0.00  0.00    +0.000 A 
ATOM     21  C16 UNL     1       0.654  95.736 143.094  0.00  0.00    +0.000 A 
ATOM     22  C17 UNL     1       0.342  97.081 143.374  0.00  0.00    +0.000 A 
ATOM     23  C18 UNL     1      -0.993  97.505 143.312  0.00  0.00    +0.000 A 
ATOM     24  C19 UNL     1      -2.002  96.598 142.969  0.00  0.00    +0.000 A 
ATOM     25  C20 UNL     1      -1.689  95.266 142.692  0.00  0.00    +0.000 A 
BRANCH  23  26
ATOM     26  O4  UNL     1      -1.307  98.834 143.590  0.00  0.00    +0.000 OA
ATOM     27  H16 UNL     1      -0.585  99.527 143.759  0.00  0.00    +0.000 HD
ENDBRANCH  23  26
BRANCH  22  28
ATOM     28  O5  UNL     1       1.326  98.025 143.711  0.00  0.00    +0.000 OA
ATOM     29  C21 UNL     1       2.728  97.781 143.664  0.00  0.00    +0.000 C 
ENDBRANCH  22  28
ENDBRANCH  19  20
ENDBRANCH  16  18
ENDBRANCH   1  16
TORSDOF 10
ENDMDL
MODEL 4
REMARK VINA RESULT:      -2.3      2.133      5.495
REMARK  Name = .\curcumin.pdb
REMARK  12 active torsions:
REMARK  status: ('A' for Active; 'I' for Inactive)
REMARK    1  A    between atoms: C1_1  and  O1_2
REMARK    2  A    between atoms: O1_2  and  C2_3
REMARK    3  A    between atoms: C4_5  and  O6_27
REMARK    4  A    between atoms: C7_8  and  C8_9
REMARK    5  A    between atoms: C9_10  and  C10_11
REMARK    6  A    between atoms: C10_11  and  C11_13
REMARK    7  A    between atoms: C11_13  and  C12_14
REMARK    8  A    between atoms: C12_14  and  C13_16
REMARK    9  A    between atoms: C14_17  and  C15_18
REMARK   10  A    between atoms: C17_20  and  O5_25
REMARK   11  A    between atoms: C18_21  and  O4_24
REMARK   12  A    between atoms: O5_25  and  C21_26
REMARK                            x       y       z     vdW  Elec       q    Type
REMARK                         _______ _______ _______ _____ _____    ______ ____
ROOT
ATOM      1  C11 UNL     1       0.006  90.773 141.467  0.00  0.00    +0.000 C 
ENDROOT
BRANCH   1   2
ATOM      2  C10 UNL     1       1.110  90.634 140.457  0.00  0.00    +0.000 C 
ATOM      3  O2  UNL     1       1.686  89.521 140.323  0.00  0.00    +0.000 OA
BRANCH   2   5
ATOM      4  C8  UNL     1       2.128  92.851 140.093  0.00  0.00    +0.000 C 
ATOM      5  C9  UNL     1       1.482  91.782 139.608  0.00  0.00    +0.000 C 
BRANCH   4  11
ATOM      6  C2  UNL     1       3.490  94.950 139.668  0.00  0.00    +0.000 A 
ATOM      7  C3  UNL     1       3.822  96.018 138.809  0.00  0.00    +0.000 A 
ATOM      8  C4  UNL     1       3.242  96.116 137.538  0.00  0.00    +0.000 A 
ATOM      9  C5  UNL     1       2.332  95.146 137.113  0.00  0.00    +0.000 A 
ATOM     10  C6  UNL     1       1.988  94.090 137.956  0.00  0.00    +0.000 A 
ATOM     11  C7  UNL     1       2.538  93.993 139.245  0.00  0.00    +0.000 A 
BRANCH   6  13
ATOM     12  C1  UNL     1       3.656  95.414 142.126  0.00  0.00    +0.000 C 
ATOM     13  O1  UNL     1       4.106  94.802 140.922  0.00  0.00    +0.000 OA
ENDBRANCH   6  13
BRANCH   8  14
ATOM     14  O6  UNL     1       3.572  97.168 136.686  0.00  0.00    +0.000 OA
ATOM     15  H20 UNL     1       4.120  97.020 135.846  0.00  0.00    +0.000 HD
ENDBRANCH   8  14
ENDBRANCH   4  11
ENDBRANCH   2   5
ENDBRANCH   1   2
BRANCH   1  16
ATOM     16  C12 UNL     1       0.472  91.433 142.745  0.00  0.00    +0.000 C 
ATOM     17  O3  UNL     1       1.259  90.823 143.518  0.00  0.00    +0.000 OA
BRANCH  16  18
ATOM     18  C13 UNL     1       0.031  92.791 143.131  0.00  0.00    +0.000 C 
ATOM     19  C14 UNL     1      -0.547  93.650 142.277  0.00  0.00    +0.000 C 
BRANCH  19  20
ATOM     20  C15 UNL     1      -1.001  95.008 142.665  0.00  0.00    +0.000 A 
ATOM     21  C16 UNL     1      -0.100  96.049 142.969  0.00  0.00    +0.000 A 
ATOM     22  C17 UNL     1      -0.573  97.328 143.323  0.00  0.00    +0.000 A 
ATOM     23  C18 UNL     1      -1.954  97.565 143.360  0.00  0.00    +0.000 A 
ATOM     24  C19 UNL     1      -2.851  96.539 143.040  0.00  0.00    +0.000 A 
ATOM     25  C20 UNL     1      -2.378  95.273 142.690  0.00  0.00    +0.000 A 
BRANCH  23  26
ATOM     26  O4  UNL     1      -2.428  98.828 143.711  0.00  0.00    +0.000 OA
ATOM     27  H16 UNL     1      -1.843  99.654 143.637  0.00  0.00    +0.000 HD
ENDBRANCH  23  26
BRANCH  22  28
ATOM     28  O5  UNL     1       0.293  98.387 143.639  0.00  0.00    +0.000 OA
ATOM     29  C21 UNL     1       1.675  98.429 143.299  0.00  0.00    +0.000 C 
ENDBRANCH  22  28
ENDBRANCH  19  20
ENDBRANCH  16  18
ENDBRANCH   1  16
TORSDOF 10
ENDMDL
MODEL 5
REMARK VINA RESULT:      -1.7      2.462      6.313
REMARK  Name = .\curcumin.pdb
REMARK  12 active torsions:
REMARK  status: ('A' for Active; 'I' for Inactive)
REMARK    1  A    between atoms: C1_1  and  O1_2
REMARK    2  A    between atoms: O1_2  and  C2_3
REMARK    3  A    between atoms: C4_5  and  O6_27
REMARK    4  A    between atoms: C7_8  and  C8_9
REMARK    5  A    between atoms: C9_10  and  C10_11
REMARK    6  A    between atoms: C10_11  and  C11_13
REMARK    7  A    between atoms: C11_13  and  C12_14
REMARK    8  A    between atoms: C12_14  and  C13_16
REMARK    9  A    between atoms: C14_17  and  C15_18
REMARK   10  A    between atoms: C17_20  and  O5_25
REMARK   11  A    between atoms: C18_21  and  O4_24
REMARK   12  A    between atoms: O5_25  and  C21_26
REMARK                            x       y       z     vdW  Elec       q    Type
REMARK                         _______ _______ _______ _____ _____    ______ ____
ROOT
ATOM      1  C11 UNL     1       0.072  94.202 135.193  0.00  0.00    +0.000 C 
ENDROOT
BRANCH   1   2
ATOM      2  C10 UNL     1       0.566  95.620 135.136  0.00  0.00    +0.000 C 
ATOM      3  O2  UNL     1       0.343  96.310 134.105  0.00  0.00    +0.000 OA
BRANCH   2   5
ATOM      4  C8  UNL     1       2.594  96.096 136.457  0.00  0.00    +0.000 C 
ATOM      5  C9  UNL     1       1.269  96.204 136.295  0.00  0.00    +0.000 C 
BRANCH   4  11
ATOM      6  C2  UNL     1       3.704  98.068 137.606  0.00  0.00    +0.000 A 
ATOM      7  C3  UNL     1       4.399  98.577 138.723  0.00  0.00    +0.000 A 
ATOM      8  C4  UNL     1       4.675  97.758 139.824  0.00  0.00    +0.000 A 
ATOM      9  C5  UNL     1       4.255  96.427 139.822  0.00  0.00    +0.000 A 
ATOM     10  C6  UNL     1       3.575  95.908 138.720  0.00  0.00    +0.000 A 
ATOM     11  C7  UNL     1       3.315  96.708 137.596  0.00  0.00    +0.000 A 
BRANCH   6  13
ATOM     12  C1  UNL     1       3.853  98.725 135.191  0.00  0.00    +0.000 C 
ATOM     13  O1  UNL     1       3.365  98.891 136.518  0.00  0.00    +0.000 OA
ENDBRANCH   6  13
BRANCH   8  14
ATOM     14  O6  UNL     1       5.359  98.260 140.929  0.00  0.00    +0.000 OA
ATOM     15  H20 UNL     1       6.311  97.983 141.135  0.00  0.00    +0.000 HD
ENDBRANCH   8  14
ENDBRANCH   4  11
ENDBRANCH   2   5
ENDBRANCH   1   2
BRANCH   1  16
ATOM     16  C12 UNL     1       0.868  93.352 136.157  0.00  0.00    +0.000 C 
ATOM     17  O3  UNL     1       1.985  92.883 135.809  0.00  0.00    +0.000 OA
BRANCH  16  18
ATOM     18  C13 UNL     1       0.377  93.042 137.517  0.00  0.00    +0.000 C 
ATOM     19  C14 UNL     1       1.171  92.604 138.507  0.00  0.00    +0.000 C 
BRANCH  19  20
ATOM     20  C15 UNL     1       0.684  92.304 139.876  0.00  0.00    +0.000 A 
ATOM     21  C16 UNL     1       0.480  93.310 140.843  0.00  0.00    +0.000 A 
ATOM     22  C17 UNL     1       0.005  92.983 142.129  0.00  0.00    +0.000 A 
ATOM     23  C18 UNL     1      -0.276  91.646 142.439  0.00  0.00    +0.000 A 
ATOM     24  C19 UNL     1      -0.093  90.648 141.475  0.00  0.00    +0.000 A 
ATOM     25  C20 UNL     1       0.377  90.975 140.202  0.00  0.00    +0.000 A 
BRANCH  23  26
ATOM     26  O4  UNL     1      -0.744  91.317 143.710  0.00  0.00    +0.000 OA
ATOM     27  H16 UNL     1      -0.109  91.118 144.475  0.00  0.00    +0.000 HD
ENDBRANCH  23  26
BRANCH  22  28
ATOM     28  O5  UNL     1      -0.204  93.955 143.120  0.00  0.00    +0.000 OA
ATOM     29  C21 UNL     1      -0.841  95.209 142.900  0.00  0.00    +0.000 C 
ENDBRANCH  22  28
ENDBRANCH  19  20
ENDBRANCH  16  18
ENDBRANCH   1  16
TORSDOF 10
ENDMDL
