MODEL 1
REMARK VINA RESULT:      -2.5      0.000      0.000
REMARK  Name = .\curcumin.pdb
REMARK  12 active torsions:
REMARK  status: ('A' for Active; 'I' for Inactive)
REMARK    1  A    between atoms: C1_1  and  O1_2
REMARK    2  A    between atoms: O1_2  and  C2_3
REMARK    3  A    between atoms: C4_5  and  O6_27
REMARK    4  A    between atoms: C7_8  and  C8_9
REMARK    5  A    between atoms: C9_10  and  C10_11
REMARK    6  A    between atoms: C10_11  and  C11_13
REMARK    7  A    between atoms: C11_13  and  C12_14
REMARK    8  A    between atoms: C12_14  and  C13_16
REMARK    9  A    between atoms: C14_17  and  C15_18
REMARK   10  A    between atoms: C17_20  and  O5_25
REMARK   11  A    between atoms: C18_21  and  O4_24
REMARK   12  A    between atoms: O5_25  and  C21_26
REMARK                            x       y       z     vdW  Elec       q    Type
REMARK                         _______ _______ _______ _____ _____    ______ ____
ROOT
ATOM      1  C11 UNL     1     -10.486  39.924  16.746  0.00  0.00    +0.000 C 
ENDROOT
BRANCH   1   2
ATOM      2  C10 UNL     1      -9.087  39.381  16.662  0.00  0.00    +0.000 C 
ATOM      3  O2  UNL     1      -8.490  39.382  15.552  0.00  0.00    +0.000 OA
BRANCH   2   5
ATOM      4  C8  UNL     1      -8.294  37.586  18.156  0.00  0.00    +0.000 C 
ATOM      5  C9  UNL     1      -8.412  38.891  17.880  0.00  0.00    +0.000 C 
BRANCH   4  11
ATOM      6  C2  UNL     1      -7.953  35.876  20.002  0.00  0.00    +0.000 A 
ATOM      7  C3  UNL     1      -7.241  35.466  21.148  0.00  0.00    +0.000 A 
ATOM      8  C4  UNL     1      -6.164  36.223  21.625  0.00  0.00    +0.000 A 
ATOM      9  C5  UNL     1      -5.786  37.390  20.961  0.00  0.00    +0.000 A 
ATOM     10  C6  UNL     1      -6.488  37.813  19.832  0.00  0.00    +0.000 A 
ATOM     11  C7  UNL     1      -7.588  37.081  19.356  0.00  0.00    +0.000 A 
BRANCH   6  13
ATOM     12  C1  UNL     1      -9.159  33.701  19.686  0.00  0.00    +0.000 C 
ATOM     13  O1  UNL     1      -8.997  35.100  19.472  0.00  0.00    +0.000 OA
ENDBRANCH   6  13
BRANCH   8  14
ATOM     14  O6  UNL     1      -5.457  35.817  22.755  0.00  0.00    +0.000 OA
ATOM     15  H20 UNL     1      -4.631  35.234  22.684  0.00  0.00    +0.000 HD
ENDBRANCH   8  14
ENDBRANCH   4  11
ENDBRANCH   2   5
ENDBRANCH   1   2
BRANCH   1  16
ATOM     16  C12 UNL     1     -11.503  38.854  17.068  0.00  0.00    +0.000 C 
ATOM     17  O3  UNL     1     -12.562  38.766  16.391  0.00  0.00    +0.000 OA
BRANCH  16  18
ATOM     18  C13 UNL     1     -11.299  37.887  18.169  0.00  0.00    +0.000 C 
ATOM     19  C14 UNL     1     -12.307  37.279  18.814  0.00  0.00    +0.000 C 
BRANCH  19  20
ATOM     20  C15 UNL     1     -12.106  36.300  19.910  0.00  0.00    +0.000 A 
ATOM     21  C16 UNL     1     -11.492  36.647  21.131  0.00  0.00    +0.000 A 
ATOM     22  C17 UNL     1     -11.329  35.687  22.150  0.00  0.00    +0.000 A 
ATOM     23  C18 UNL     1     -11.795  34.381  21.947  0.00  0.00    +0.000 A 
ATOM     24  C19 UNL     1     -12.422  34.039  20.743  0.00  0.00    +0.000 A 
ATOM     25  C20 UNL     1     -12.581  34.992  19.736  0.00  0.00    +0.000 A 
BRANCH  23  26
ATOM     26  O4  UNL     1     -11.635  33.429  22.951  0.00  0.00    +0.000 OA
ATOM     27  H16 UNL     1     -12.432  33.017  23.425  0.00  0.00    +0.000 HD
ENDBRANCH  23  26
BRANCH  22  28
ATOM     28  O5  UNL     1     -10.716  35.993  23.376  0.00  0.00    +0.000 OA
ATOM     29  C21 UNL     1      -9.471  35.459  23.811  0.00  0.00    +0.000 C 
ENDBRANCH  22  28
ENDBRANCH  19  20
ENDBRANCH  16  18
ENDBRANCH   1  16
TORSDOF 10
ENDMDL
MODEL 2
REMARK VINA RESULT:      -0.3      1.477      2.176
REMARK  Name = .\curcumin.pdb
REMARK  12 active torsions:
REMARK  status: ('A' for Active; 'I' for Inactive)
REMARK    1  A    between atoms: C1_1  and  O1_2
REMARK    2  A    between atoms: O1_2  and  C2_3
REMARK    3  A    between atoms: C4_5  and  O6_27
REMARK    4  A    between atoms: C7_8  and  C8_9
REMARK    5  A    between atoms: C9_10  and  C10_11
REMARK    6  A    between atoms: C10_11  and  C11_13
REMARK    7  A    between atoms: C11_13  and  C12_14
REMARK    8  A    between atoms: C12_14  and  C13_16
REMARK    9  A    between atoms: C14_17  and  C15_18
REMARK   10  A    between atoms: C17_20  and  O5_25
REMARK   11  A    between atoms: C18_21  and  O4_24
REMARK   12  A    between atoms: O5_25  and  C21_26
REMARK                            x       y       z     vdW  Elec       q    Type
REMARK                         _______ _______ _______ _____ _____    ______ ____
ROOT
ATOM      1  C11 UNL     1     -12.022  39.871  16.791  0.00  0.00    +0.000 C 
ENDROOT
BRANCH   1   2
ATOM      2  C10 UNL     1     -10.665  39.314  16.467  0.00  0.00    +0.000 C 
ATOM      3  O2  UNL     1     -10.317  39.199  15.261  0.00  0.00    +0.000 OA
BRANCH   2   5
ATOM      4  C8  UNL     1      -9.287  37.695  17.719  0.00  0.00    +0.000 C 
ATOM      5  C9  UNL     1      -9.739  38.945  17.556  0.00  0.00    +0.000 C 
BRANCH   4  11
ATOM      6  C2  UNL     1      -8.553  36.227  19.655  0.00  0.00    +0.000 A 
ATOM      7  C3  UNL     1      -7.602  35.939  20.656  0.00  0.00    +0.000 A 
ATOM      8  C4  UNL     1      -6.435  36.704  20.770  0.00  0.00    +0.000 A 
ATOM      9  C5  UNL     1      -6.205  37.758  19.884  0.00  0.00    +0.000 A 
ATOM     10  C6  UNL     1      -7.142  38.060  18.896  0.00  0.00    +0.000 A 
ATOM     11  C7  UNL     1      -8.331  37.321  18.785  0.00  0.00    +0.000 A 
BRANCH   6  13
ATOM     12  C1  UNL     1      -9.748  34.024  19.676  0.00  0.00    +0.000 C 
ATOM     13  O1  UNL     1      -9.701  35.434  19.486  0.00  0.00    +0.000 OA
ENDBRANCH   6  13
BRANCH   8  14
ATOM     14  O6  UNL     1      -5.492  36.419  21.756  0.00  0.00    +0.000 OA
ATOM     15  H20 UNL     1      -5.759  36.293  22.725  0.00  0.00    +0.000 HD
ENDBRANCH   8  14
ENDBRANCH   4  11
ENDBRANCH   2   5
ENDBRANCH   1   2
BRANCH   1  16
ATOM     16  C12 UNL     1     -12.279  39.935  18.279  0.00  0.00    +0.000 C 
ATOM     17  O3  UNL     1     -12.482  41.047  18.837  0.00  0.00    +0.000 OA
BRANCH  16  18
ATOM     18  C13 UNL     1     -12.303  38.721  19.123  0.00  0.00    +0.000 C 
ATOM     19  C14 UNL     1     -12.484  38.748  20.452  0.00  0.00    +0.000 C 
BRANCH  19  20
ATOM     20  C15 UNL     1     -12.520  37.530  21.299  0.00  0.00    +0.000 A 
ATOM     21  C16 UNL     1     -12.535  36.230  20.753  0.00  0.00    +0.000 A 
ATOM     22  C17 UNL     1     -12.558  35.099  21.593  0.00  0.00    +0.000 A 
ATOM     23  C18 UNL     1     -12.555  35.275  22.984  0.00  0.00    +0.000 A 
ATOM     24  C19 UNL     1     -12.521  36.563  23.529  0.00  0.00    +0.000 A 
ATOM     25  C20 UNL     1     -12.497  37.682  22.693  0.00  0.00    +0.000 A 
BRANCH  23  26
ATOM     26  O4  UNL     1     -12.580  34.160  23.819  0.00  0.00    +0.000 OA
ATOM     27  H16 UNL     1     -13.443  33.667  24.022  0.00  0.00    +0.000 HD
ENDBRANCH  23  26
BRANCH  22  28
ATOM     28  O5  UNL     1     -12.581  33.789  21.087  0.00  0.00    +0.000 OA
ATOM     29  C21 UNL     1     -12.582  33.460  19.702  0.00  0.00    +0.000 C 
ENDBRANCH  22  28
ENDBRANCH  19  20
ENDBRANCH  16  18
ENDBRANCH   1  16
TORSDOF 10
ENDMDL
