MODEL 1
REMARK VINA RESULT:      32.1      0.000      0.000
REMARK  Name = .\curcumin.pdb
REMARK  12 active torsions:
REMARK  status: ('A' for Active; 'I' for Inactive)
REMARK    1  A    between atoms: C1_1  and  O1_2
REMARK    2  A    between atoms: O1_2  and  C2_3
REMARK    3  A    between atoms: C4_5  and  O6_27
REMARK    4  A    between atoms: C7_8  and  C8_9
REMARK    5  A    between atoms: C9_10  and  C10_11
REMARK    6  A    between atoms: C10_11  and  C11_13
REMARK    7  A    between atoms: C11_13  and  C12_14
REMARK    8  A    between atoms: C12_14  and  C13_16
REMARK    9  A    between atoms: C14_17  and  C15_18
REMARK   10  A    between atoms: C17_20  and  O5_25
REMARK   11  A    between atoms: C18_21  and  O4_24
REMARK   12  A    between atoms: O5_25  and  C21_26
REMARK                            x       y       z     vdW  Elec       q    Type
REMARK                         _______ _______ _______ _____ _____    ______ ____
ROOT
ATOM      1  C11 UNL     1     -17.011  73.097  50.708  0.00  0.00    +0.000 C 
ENDROOT
BRANCH   1   2
ATOM      2  C10 UNL     1     -17.608  71.803  50.230  0.00  0.00    +0.000 C 
ATOM      3  O2  UNL     1     -17.787  70.865  51.053  0.00  0.00    +0.000 OA
BRANCH   2   5
ATOM      4  C8  UNL     1     -18.258  70.461  48.266  0.00  0.00    +0.000 C 
ATOM      5  C9  UNL     1     -18.016  71.656  48.819  0.00  0.00    +0.000 C 
BRANCH   4  11
ATOM      6  C2  UNL     1     -19.542  71.246  46.221  0.00  0.00    +0.000 A 
ATOM      7  C3  UNL     1     -19.934  71.022  44.885  0.00  0.00    +0.000 A 
ATOM      8  C4  UNL     1     -19.476  69.897  44.187  0.00  0.00    +0.000 A 
ATOM      9  C5  UNL     1     -18.619  68.992  44.815  0.00  0.00    +0.000 A 
ATOM     10  C6  UNL     1     -18.231  69.196  46.139  0.00  0.00    +0.000 A 
ATOM     11  C7  UNL     1     -18.703  70.304  46.862  0.00  0.00    +0.000 A 
BRANCH   6  13
ATOM     12  C1  UNL     1     -19.429  73.707  46.685  0.00  0.00    +0.000 C 
ATOM     13  O1  UNL     1     -19.942  72.399  46.917  0.00  0.00    +0.000 OA
ENDBRANCH   6  13
BRANCH   8  14
ATOM     14  O6  UNL     1     -19.860  69.676  42.866  0.00  0.00    +0.000 OA
ATOM     15  H20 UNL     1     -20.620  69.049  42.632  0.00  0.00    +0.000 HD
ENDBRANCH   8  14
ENDBRANCH   4  11
ENDBRANCH   2   5
ENDBRANCH   1   2
BRANCH   1  16
ATOM     16  C12 UNL     1     -15.630  73.339  50.144  0.00  0.00    +0.000 C 
ATOM     17  O3  UNL     1     -14.720  73.802  50.882  0.00  0.00    +0.000 OA
BRANCH  16  18
ATOM     18  C13 UNL     1     -15.298  73.046  48.733  0.00  0.00    +0.000 C 
ATOM     19  C14 UNL     1     -14.999  71.818  48.283  0.00  0.00    +0.000 C 
BRANCH  19  20
ATOM     20  C15 UNL     1     -14.679  71.520  46.866  0.00  0.00    +0.000 A 
ATOM     21  C16 UNL     1     -15.645  71.044  45.955  0.00  0.00    +0.000 A 
ATOM     22  C17 UNL     1     -15.300  70.784  44.614  0.00  0.00    +0.000 A 
ATOM     23  C18 UNL     1     -13.986  71.013  44.184  0.00  0.00    +0.000 A 
ATOM     24  C19 UNL     1     -13.029  71.503  45.081  0.00  0.00    +0.000 A 
ATOM     25  C20 UNL     1     -13.374  71.760  46.409  0.00  0.00    +0.000 A 
BRANCH  23  26
ATOM     26  O4  UNL     1     -13.640  70.756  42.859  0.00  0.00    +0.000 OA
ATOM     27  H16 UNL     1     -12.898  70.105  42.621  0.00  0.00    +0.000 HD
ENDBRANCH  23  26
BRANCH  22  28
ATOM     28  O5  UNL     1     -16.233  70.304  43.680  0.00  0.00    +0.000 OA
ATOM     29  C21 UNL     1     -16.568  68.930  43.509  0.00  0.00    +0.000 C 
ENDBRANCH  22  28
ENDBRANCH  19  20
ENDBRANCH  16  18
ENDBRANCH   1  16
TORSDOF 10
ENDMDL
