MODEL 1
REMARK VINA RESULT:      -3.7      0.000      0.000
REMARK  Name = .\curcumin.pdb
REMARK  12 active torsions:
REMARK  status: ('A' for Active; 'I' for Inactive)
REMARK    1  A    between atoms: C1_1  and  O1_2
REMARK    2  A    between atoms: O1_2  and  C2_3
REMARK    3  A    between atoms: C4_5  and  O6_27
REMARK    4  A    between atoms: C7_8  and  C8_9
REMARK    5  A    between atoms: C9_10  and  C10_11
REMARK    6  A    between atoms: C10_11  and  C11_13
REMARK    7  A    between atoms: C11_13  and  C12_14
REMARK    8  A    between atoms: C12_14  and  C13_16
REMARK    9  A    between atoms: C14_17  and  C15_18
REMARK   10  A    between atoms: C17_20  and  O5_25
REMARK   11  A    between atoms: C18_21  and  O4_24
REMARK   12  A    between atoms: O5_25  and  C21_26
REMARK                            x       y       z     vdW  Elec       q    Type
REMARK                         _______ _______ _______ _____ _____    ______ ____
ROOT
ATOM      1  C11 UNL     1       6.087  47.967 -31.541  0.00  0.00    +0.000 C 
ENDROOT
BRANCH   1   2
ATOM      2  C10 UNL     1       6.991  48.035 -32.741  0.00  0.00    +0.000 C 
ATOM      3  O2  UNL     1       7.625  47.004 -33.094  0.00  0.00    +0.000 OA
BRANCH   2   5
ATOM      4  C8  UNL     1       6.160  50.243 -33.461  0.00  0.00    +0.000 C 
ATOM      5  C9  UNL     1       7.097  49.287 -33.515  0.00  0.00    +0.000 C 
BRANCH   4  11
ATOM      6  C2  UNL     1       5.227  52.472 -34.239  0.00  0.00    +0.000 A 
ATOM      7  C3  UNL     1       5.403  53.659 -34.979  0.00  0.00    +0.000 A 
ATOM      8  C4  UNL     1       6.609  53.911 -35.646  0.00  0.00    +0.000 A 
ATOM      9  C5  UNL     1       7.648  52.982 -35.576  0.00  0.00    +0.000 A 
ATOM     10  C6  UNL     1       7.484  51.799 -34.855  0.00  0.00    +0.000 A 
ATOM     11  C7  UNL     1       6.273  51.518 -34.204  0.00  0.00    +0.000 A 
BRANCH   6  13
ATOM     12  C1  UNL     1       3.169  53.240 -33.032  0.00  0.00    +0.000 C 
ATOM     13  O1  UNL     1       4.049  52.230 -33.513  0.00  0.00    +0.000 OA
ENDBRANCH   6  13
BRANCH   8  14
ATOM     14  O6  UNL     1       6.786  55.085 -36.374  0.00  0.00    +0.000 OA
ATOM     15  H20 UNL     1       6.549  55.141 -37.358  0.00  0.00    +0.000 HD
ENDBRANCH   8  14
ENDBRANCH   4  11
ENDBRANCH   2   5
ENDBRANCH   1   2
BRANCH   1  16
ATOM     16  C12 UNL     1       6.788  48.378 -30.267  0.00  0.00    +0.000 C 
ATOM     17  O3  UNL     1       7.113  47.506 -29.417  0.00  0.00    +0.000 OA
BRANCH  16  18
ATOM     18  C13 UNL     1       7.113  49.791 -29.973  0.00  0.00    +0.000 C 
ATOM     19  C14 UNL     1       6.478  50.828 -30.540  0.00  0.00    +0.000 C 
BRANCH  19  20
ATOM     20  C15 UNL     1       6.794  52.246 -30.237  0.00  0.00    +0.000 A 
ATOM     21  C16 UNL     1       6.815  53.245 -31.231  0.00  0.00    +0.000 A 
ATOM     22  C17 UNL     1       7.110  54.582 -30.899  0.00  0.00    +0.000 A 
ATOM     23  C18 UNL     1       7.373  54.918 -29.564  0.00  0.00    +0.000 A 
ATOM     24  C19 UNL     1       7.335  53.932 -28.572  0.00  0.00    +0.000 A 
ATOM     25  C20 UNL     1       7.042  52.608 -28.904  0.00  0.00    +0.000 A 
BRANCH  23  26
ATOM     26  O4  UNL     1       7.667  56.239 -29.230  0.00  0.00    +0.000 OA
ATOM     27  H16 UNL     1       8.579  56.642 -29.414  0.00  0.00    +0.000 HD
ENDBRANCH  23  26
BRANCH  22  28
ATOM     28  O5  UNL     1       7.146  55.604 -31.863  0.00  0.00    +0.000 OA
ATOM     29  C21 UNL     1       5.995  56.206 -32.444  0.00  0.00    +0.000 C 
ENDBRANCH  22  28
ENDBRANCH  19  20
ENDBRANCH  16  18
ENDBRANCH   1  16
TORSDOF 10
ENDMDL
MODEL 2
REMARK VINA RESULT:      -3.1      1.763      5.995
REMARK  Name = .\curcumin.pdb
REMARK  12 active torsions:
REMARK  status: ('A' for Active; 'I' for Inactive)
REMARK    1  A    between atoms: C1_1  and  O1_2
REMARK    2  A    between atoms: O1_2  and  C2_3
REMARK    3  A    between atoms: C4_5  and  O6_27
REMARK    4  A    between atoms: C7_8  and  C8_9
REMARK    5  A    between atoms: C9_10  and  C10_11
REMARK    6  A    between atoms: C10_11  and  C11_13
REMARK    7  A    between atoms: C11_13  and  C12_14
REMARK    8  A    between atoms: C12_14  and  C13_16
REMARK    9  A    between atoms: C14_17  and  C15_18
REMARK   10  A    between atoms: C17_20  and  O5_25
REMARK   11  A    between atoms: C18_21  and  O4_24
REMARK   12  A    between atoms: O5_25  and  C21_26
REMARK                            x       y       z     vdW  Elec       q    Type
REMARK                         _______ _______ _______ _____ _____    ______ ____
ROOT
ATOM      1  C11 UNL     1       7.665  53.236 -29.358  0.00  0.00    +0.000 C 
ENDROOT
BRANCH   1   2
ATOM      2  C10 UNL     1       7.107  54.520 -29.905  0.00  0.00    +0.000 C 
ATOM      3  O2  UNL     1       7.280  55.591 -29.263  0.00  0.00    +0.000 OA
BRANCH   2   5
ATOM      4  C8  UNL     1       5.653  53.491 -31.611  0.00  0.00    +0.000 C 
ATOM      5  C9  UNL     1       6.400  54.524 -31.200  0.00  0.00    +0.000 C 
BRANCH   4  11
ATOM      6  C2  UNL     1       5.481  53.043 -34.104  0.00  0.00    +0.000 A 
ATOM      7  C3  UNL     1       4.716  53.092 -35.287  0.00  0.00    +0.000 A 
ATOM      8  C4  UNL     1       3.394  53.555 -35.261  0.00  0.00    +0.000 A 
ATOM      9  C5  UNL     1       2.826  53.967 -34.055  0.00  0.00    +0.000 A 
ATOM     10  C6  UNL     1       3.575  53.933 -32.879  0.00  0.00    +0.000 A 
ATOM     11  C7  UNL     1       4.910  53.498 -32.892  0.00  0.00    +0.000 A 
BRANCH   6  13
ATOM     12  C1  UNL     1       7.143  51.213 -34.522  0.00  0.00    +0.000 C 
ATOM     13  O1  UNL     1       6.787  52.525 -34.098  0.00  0.00    +0.000 OA
ENDBRANCH   6  13
BRANCH   8  14
ATOM     14  O6  UNL     1       2.635  53.601 -36.429  0.00  0.00    +0.000 OA
ATOM     15  H20 UNL     1       2.439  54.475 -36.901  0.00  0.00    +0.000 HD
ENDBRANCH   8  14
ENDBRANCH   4  11
ENDBRANCH   2   5
ENDBRANCH   1   2
BRANCH   1  16
ATOM     16  C12 UNL     1       6.597  52.189 -29.138  0.00  0.00    +0.000 C 
ATOM     17  O3  UNL     1       5.462  52.528 -28.708  0.00  0.00    +0.000 OA
BRANCH  16  18
ATOM     18  C13 UNL     1       6.837  50.756 -29.414  0.00  0.00    +0.000 C 
ATOM     19  C14 UNL     1       6.643  50.193 -30.616  0.00  0.00    +0.000 C 
BRANCH  19  20
ATOM     20  C15 UNL     1       6.895  48.758 -30.898  0.00  0.00    +0.000 A 
ATOM     21  C16 UNL     1       6.923  48.238 -32.209  0.00  0.00    +0.000 A 
ATOM     22  C17 UNL     1       7.176  46.870 -32.433  0.00  0.00    +0.000 A 
ATOM     23  C18 UNL     1       7.413  46.026 -31.339  0.00  0.00    +0.000 A 
ATOM     24  C19 UNL     1       7.404  46.542 -30.039  0.00  0.00    +0.000 A 
ATOM     25  C20 UNL     1       7.153  47.898 -29.820  0.00  0.00    +0.000 A 
BRANCH  23  26
ATOM     26  O4  UNL     1       7.661  44.672 -31.556  0.00  0.00    +0.000 OA
ATOM     27  H16 UNL     1       8.604  44.318 -31.677  0.00  0.00    +0.000 HD
ENDBRANCH  23  26
BRANCH  22  28
ATOM     28  O5  UNL     1       7.205  46.315 -33.722  0.00  0.00    +0.000 OA
ATOM     29  C21 UNL     1       7.551  47.032 -34.903  0.00  0.00    +0.000 C 
ENDBRANCH  22  28
ENDBRANCH  19  20
ENDBRANCH  16  18
ENDBRANCH   1  16
TORSDOF 10
ENDMDL
