MODEL 1
REMARK VINA RESULT:       3.4      0.000      0.000
REMARK  Name = .\curcumin.pdb
REMARK  12 active torsions:
REMARK  status: ('A' for Active; 'I' for Inactive)
REMARK    1  A    between atoms: C1_1  and  O1_2
REMARK    2  A    between atoms: O1_2  and  C2_3
REMARK    3  A    between atoms: C4_5  and  O6_27
REMARK    4  A    between atoms: C7_8  and  C8_9
REMARK    5  A    between atoms: C9_10  and  C10_11
REMARK    6  A    between atoms: C10_11  and  C11_13
REMARK    7  A    between atoms: C11_13  and  C12_14
REMARK    8  A    between atoms: C12_14  and  C13_16
REMARK    9  A    between atoms: C14_17  and  C15_18
REMARK   10  A    between atoms: C17_20  and  O5_25
REMARK   11  A    between atoms: C18_21  and  O4_24
REMARK   12  A    between atoms: O5_25  and  C21_26
REMARK                            x       y       z     vdW  Elec       q    Type
REMARK                         _______ _______ _______ _____ _____    ______ ____
ROOT
ATOM      1  C11 UNL     1      -1.851  31.696  25.747  0.00  0.00    +0.000 C 
ENDROOT
BRANCH   1   2
ATOM      2  C10 UNL     1      -3.156  31.911  26.463  0.00  0.00    +0.000 C 
ATOM      3  O2  UNL     1      -4.192  32.166  25.794  0.00  0.00    +0.000 OA
BRANCH   2   5
ATOM      4  C8  UNL     1      -2.121  31.668  28.689  0.00  0.00    +0.000 C 
ATOM      5  C9  UNL     1      -3.220  31.782  27.932  0.00  0.00    +0.000 C 
BRANCH   4  11
ATOM      6  C2  UNL     1      -1.005  31.581  30.968  0.00  0.00    +0.000 A 
ATOM      7  C3  UNL     1      -1.132  31.477  32.368  0.00  0.00    +0.000 A 
ATOM      8  C4  UNL     1      -2.397  31.399  32.965  0.00  0.00    +0.000 A 
ATOM      9  C5  UNL     1      -3.543  31.431  32.170  0.00  0.00    +0.000 A 
ATOM     10  C6  UNL     1      -3.432  31.525  30.783  0.00  0.00    +0.000 A 
ATOM     11  C7  UNL     1      -2.172  31.575  30.166  0.00  0.00    +0.000 A 
BRANCH   6  13
ATOM     12  C1  UNL     1       1.488  31.319  30.936  0.00  0.00    +0.000 C 
ATOM     13  O1  UNL     1       0.251  31.721  30.355  0.00  0.00    +0.000 OA
ENDBRANCH   6  13
BRANCH   8  14
ATOM     14  O6  UNL     1      -2.524  31.300  34.349  0.00  0.00    +0.000 OA
ATOM     15  H20 UNL     1      -2.723  32.110  34.924  0.00  0.00    +0.000 HD
ENDBRANCH   8  14
ENDBRANCH   4  11
ENDBRANCH   2   5
ENDBRANCH   1   2
BRANCH   1  16
ATOM     16  C12 UNL     1      -0.657  32.031  26.611  0.00  0.00    +0.000 C 
ATOM     17  O3  UNL     1       0.482  31.583  26.312  0.00  0.00    +0.000 OA
BRANCH  16  18
ATOM     18  C13 UNL     1      -0.775  32.880  27.816  0.00  0.00    +0.000 C 
ATOM     19  C14 UNL     1      -1.339  34.098  27.810  0.00  0.00    +0.000 C 
BRANCH  19  20
ATOM     20  C15 UNL     1      -1.470  34.946  29.020  0.00  0.00    +0.000 A 
ATOM     21  C16 UNL     1      -1.682  34.404  30.304  0.00  0.00    +0.000 A 
ATOM     22  C17 UNL     1      -1.790  35.245  31.429  0.00  0.00    +0.000 A 
ATOM     23  C18 UNL     1      -1.674  36.632  31.265  0.00  0.00    +0.000 A 
ATOM     24  C19 UNL     1      -1.445  37.172  29.995  0.00  0.00    +0.000 A 
ATOM     25  C20 UNL     1      -1.338  36.335  28.882  0.00  0.00    +0.000 A 
BRANCH  23  26
ATOM     26  O4  UNL     1      -1.782  37.469  32.375  0.00  0.00    +0.000 OA
ATOM     27  H16 UNL     1      -1.007  38.046  32.682  0.00  0.00    +0.000 HD
ENDBRANCH  23  26
BRANCH  22  28
ATOM     28  O5  UNL     1      -2.008  34.742  32.723  0.00  0.00    +0.000 OA
ATOM     29  C21 UNL     1      -1.014  34.677  33.741  0.00  0.00    +0.000 C 
ENDBRANCH  22  28
ENDBRANCH  19  20
ENDBRANCH  16  18
ENDBRANCH   1  16
TORSDOF 10
ENDMDL
MODEL 2
REMARK VINA RESULT:       4.9      1.771      6.179
REMARK  Name = .\curcumin.pdb
REMARK  12 active torsions:
REMARK  status: ('A' for Active; 'I' for Inactive)
REMARK    1  A    between atoms: C1_1  and  O1_2
REMARK    2  A    between atoms: O1_2  and  C2_3
REMARK    3  A    between atoms: C4_5  and  O6_27
REMARK    4  A    between atoms: C7_8  and  C8_9
REMARK    5  A    between atoms: C9_10  and  C10_11
REMARK    6  A    between atoms: C10_11  and  C11_13
REMARK    7  A    between atoms: C11_13  and  C12_14
REMARK    8  A    between atoms: C12_14  and  C13_16
REMARK    9  A    between atoms: C14_17  and  C15_18
REMARK   10  A    between atoms: C17_20  and  O5_25
REMARK   11  A    between atoms: C18_21  and  O4_24
REMARK   12  A    between atoms: O5_25  and  C21_26
REMARK                            x       y       z     vdW  Elec       q    Type
REMARK                         _______ _______ _______ _____ _____    ______ ____
ROOT
ATOM      1  C11 UNL     1      -0.997  31.302  34.143  0.00  0.00    +0.000 C 
ENDROOT
BRANCH   1   2
ATOM      2  C10 UNL     1       0.080  31.896  33.279  0.00  0.00    +0.000 C 
ATOM      3  O2  UNL     1       1.288  31.746  33.607  0.00  0.00    +0.000 OA
BRANCH   2   5
ATOM      4  C8  UNL     1      -0.610  33.910  32.033  0.00  0.00    +0.000 C 
ATOM      5  C9  UNL     1      -0.280  32.612  32.040  0.00  0.00    +0.000 C 
BRANCH   4  11
ATOM      6  C2  UNL     1      -0.150  34.550  29.620  0.00  0.00    +0.000 A 
ATOM      7  C3  UNL     1      -0.518  35.292  28.479  0.00  0.00    +0.000 A 
ATOM      8  C4  UNL     1      -1.667  36.093  28.491  0.00  0.00    +0.000 A 
ATOM      9  C5  UNL     1      -2.459  36.154  29.638  0.00  0.00    +0.000 A 
ATOM     10  C6  UNL     1      -2.101  35.433  30.777  0.00  0.00    +0.000 A 
ATOM     11  C7  UNL     1      -0.937  34.647  30.791  0.00  0.00    +0.000 A 
BRANCH   6  13
ATOM     12  C1  UNL     1       1.196  32.675  28.641  0.00  0.00    +0.000 C 
ATOM     13  O1  UNL     1       0.965  33.695  29.608  0.00  0.00    +0.000 OA
ENDBRANCH   6  13
BRANCH   8  14
ATOM     14  O6  UNL     1      -2.035  36.824  27.363  0.00  0.00    +0.000 OA
ATOM     15  H20 UNL     1      -2.485  36.385  26.569  0.00  0.00    +0.000 HD
ENDBRANCH   8  14
ENDBRANCH   4  11
ENDBRANCH   2   5
ENDBRANCH   1   2
BRANCH   1  16
ATOM     16  C12 UNL     1      -2.380  31.516  33.571  0.00  0.00    +0.000 C 
ATOM     17  O3  UNL     1      -3.321  31.891  34.321  0.00  0.00    +0.000 OA
BRANCH  16  18
ATOM     18  C13 UNL     1      -2.677  31.298  32.139  0.00  0.00    +0.000 C 
ATOM     19  C14 UNL     1      -2.775  32.294  31.245  0.00  0.00    +0.000 C 
BRANCH  19  20
ATOM     20  C15 UNL     1      -3.060  32.077  29.805  0.00  0.00    +0.000 A 
ATOM     21  C16 UNL     1      -2.040  31.879  28.853  0.00  0.00    +0.000 A 
ATOM     22  C17 UNL     1      -2.355  31.666  27.496  0.00  0.00    +0.000 A 
ATOM     23  C18 UNL     1      -3.699  31.640  27.098  0.00  0.00    +0.000 A 
ATOM     24  C19 UNL     1      -4.715  31.818  28.044  0.00  0.00    +0.000 A 
ATOM     25  C20 UNL     1      -4.398  32.029  29.387  0.00  0.00    +0.000 A 
BRANCH  23  26
ATOM     26  O4  UNL     1      -4.016  31.432  25.757  0.00  0.00    +0.000 OA
ATOM     27  H16 UNL     1      -4.970  31.260  25.458  0.00  0.00    +0.000 HD
ENDBRANCH  23  26
BRANCH  22  28
ATOM     28  O5  UNL     1      -1.366  31.471  26.519  0.00  0.00    +0.000 OA
ATOM     29  C21 UNL     1       0.025  31.701  26.721  0.00  0.00    +0.000 C 
ENDBRANCH  22  28
ENDBRANCH  19  20
ENDBRANCH  16  18
ENDBRANCH   1  16
TORSDOF 10
ENDMDL
