MODEL 1
REMARK VINA RESULT:      16.3      0.000      0.000
REMARK  Name = .\curcumin.pdb
REMARK  12 active torsions:
REMARK  status: ('A' for Active; 'I' for Inactive)
REMARK    1  A    between atoms: C1_1  and  O1_2
REMARK    2  A    between atoms: O1_2  and  C2_3
REMARK    3  A    between atoms: C4_5  and  O6_27
REMARK    4  A    between atoms: C7_8  and  C8_9
REMARK    5  A    between atoms: C9_10  and  C10_11
REMARK    6  A    between atoms: C10_11  and  C11_13
REMARK    7  A    between atoms: C11_13  and  C12_14
REMARK    8  A    between atoms: C12_14  and  C13_16
REMARK    9  A    between atoms: C14_17  and  C15_18
REMARK   10  A    between atoms: C17_20  and  O5_25
REMARK   11  A    between atoms: C18_21  and  O4_24
REMARK   12  A    between atoms: O5_25  and  C21_26
REMARK                            x       y       z     vdW  Elec       q    Type
REMARK                         _______ _______ _______ _____ _____    ______ ____
ROOT
ATOM      1  C11 UNL     1     -14.471  75.239 126.158  0.00  0.00    +0.000 C 
ENDROOT
BRANCH   1   2
ATOM      2  C10 UNL     1     -15.557  74.858 127.125  0.00  0.00    +0.000 C 
ATOM      3  O2  UNL     1     -15.930  75.691 127.994  0.00  0.00    +0.000 OA
BRANCH   2   5
ATOM      4  C8  UNL     1     -17.494  73.343 127.319  0.00  0.00    +0.000 C 
ATOM      5  C9  UNL     1     -16.202  73.534 127.024  0.00  0.00    +0.000 C 
BRANCH   4  11
ATOM      6  C2  UNL     1     -19.508  71.898 126.773  0.00  0.00    +0.000 A 
ATOM      7  C3  UNL     1     -20.079  70.612 126.682  0.00  0.00    +0.000 A 
ATOM      8  C4  UNL     1     -19.316  69.472 126.965  0.00  0.00    +0.000 A 
ATOM      9  C5  UNL     1     -17.977  69.607 127.336  0.00  0.00    +0.000 A 
ATOM     10  C6  UNL     1     -17.403  70.874 127.439  0.00  0.00    +0.000 A 
ATOM     11  C7  UNL     1     -18.161  72.028 127.186  0.00  0.00    +0.000 A 
BRANCH   6  13
ATOM     12  C1  UNL     1     -21.355  73.071 125.549  0.00  0.00    +0.000 C 
ATOM     13  O1  UNL     1     -20.240  73.049 126.434  0.00  0.00    +0.000 OA
ENDBRANCH   6  13
BRANCH   8  14
ATOM     14  O6  UNL     1     -19.877  68.200 126.872  0.00  0.00    +0.000 OA
ATOM     15  H20 UNL     1     -20.451  67.930 126.082  0.00  0.00    +0.000 HD
ENDBRANCH   8  14
ENDBRANCH   4  11
ENDBRANCH   2   5
ENDBRANCH   1   2
BRANCH   1  16
ATOM     16  C12 UNL     1     -14.799  74.847 124.736  0.00  0.00    +0.000 C 
ATOM     17  O3  UNL     1     -14.245  75.442 123.774  0.00  0.00    +0.000 OA
BRANCH  16  18
ATOM     18  C13 UNL     1     -15.765  73.771 124.424  0.00  0.00    +0.000 C 
ATOM     19  C14 UNL     1     -15.535  72.474 124.683  0.00  0.00    +0.000 C 
BRANCH  19  20
ATOM     20  C15 UNL     1     -16.506  71.394 124.382  0.00  0.00    +0.000 A 
ATOM     21  C16 UNL     1     -17.837  71.659 123.999  0.00  0.00    +0.000 A 
ATOM     22  C17 UNL     1     -18.725  70.604 123.711  0.00  0.00    +0.000 A 
ATOM     23  C18 UNL     1     -18.272  69.280 123.798  0.00  0.00    +0.000 A 
ATOM     24  C19 UNL     1     -16.947  69.014 124.161  0.00  0.00    +0.000 A 
ATOM     25  C20 UNL     1     -16.070  70.063 124.444  0.00  0.00    +0.000 A 
BRANCH  23  26
ATOM     26  O4  UNL     1     -19.147  68.233 123.517  0.00  0.00    +0.000 OA
ATOM     27  H16 UNL     1     -20.023  68.123 124.018  0.00  0.00    +0.000 HD
ENDBRANCH  23  26
BRANCH  22  28
ATOM     28  O5  UNL     1     -20.059  70.828 123.333  0.00  0.00    +0.000 OA
ATOM     29  C21 UNL     1     -20.774  72.035 123.576  0.00  0.00    +0.000 C 
ENDBRANCH  22  28
ENDBRANCH  19  20
ENDBRANCH  16  18
ENDBRANCH   1  16
TORSDOF 10
ENDMDL
