MODEL 1
REMARK VINA RESULT:      -1.8      0.000      0.000
REMARK  Name = .\curcumin.pdb
REMARK  12 active torsions:
REMARK  status: ('A' for Active; 'I' for Inactive)
REMARK    1  A    between atoms: C1_1  and  O1_2
REMARK    2  A    between atoms: O1_2  and  C2_3
REMARK    3  A    between atoms: C4_5  and  O6_27
REMARK    4  A    between atoms: C7_8  and  C8_9
REMARK    5  A    between atoms: C9_10  and  C10_11
REMARK    6  A    between atoms: C10_11  and  C11_13
REMARK    7  A    between atoms: C11_13  and  C12_14
REMARK    8  A    between atoms: C12_14  and  C13_16
REMARK    9  A    between atoms: C14_17  and  C15_18
REMARK   10  A    between atoms: C17_20  and  O5_25
REMARK   11  A    between atoms: C18_21  and  O4_24
REMARK   12  A    between atoms: O5_25  and  C21_26
REMARK                            x       y       z     vdW  Elec       q    Type
REMARK                         _______ _______ _______ _____ _____    ______ ____
ROOT
ATOM      1  C11 UNL     1     -18.280  60.133  79.630  0.00  0.00    +0.000 C 
ENDROOT
BRANCH   1   2
ATOM      2  C10 UNL     1     -17.581  60.708  80.830  0.00  0.00    +0.000 C 
ATOM      3  O2  UNL     1     -16.325  60.812  80.821  0.00  0.00    +0.000 OA
BRANCH   2   5
ATOM      4  C8  UNL     1     -18.215  60.667  83.213  0.00  0.00    +0.000 C 
ATOM      5  C9  UNL     1     -18.368  61.180  81.986  0.00  0.00    +0.000 C 
BRANCH   4  11
ATOM      6  C2  UNL     1     -20.324  61.570  84.301  0.00  0.00    +0.000 A 
ATOM      7  C3  UNL     1     -20.976  62.037  85.460  0.00  0.00    +0.000 A 
ATOM      8  C4  UNL     1     -20.309  62.064  86.691  0.00  0.00    +0.000 A 
ATOM      9  C5  UNL     1     -18.988  61.621  86.775  0.00  0.00    +0.000 A 
ATOM     10  C6  UNL     1     -18.327  61.166  85.634  0.00  0.00    +0.000 A 
ATOM     11  C7  UNL     1     -18.973  61.158  84.387  0.00  0.00    +0.000 A 
BRANCH   6  13
ATOM     12  C1  UNL     1     -20.964  62.470  82.050  0.00  0.00    +0.000 C 
ATOM     13  O1  UNL     1     -20.995  61.477  83.070  0.00  0.00    +0.000 OA
ENDBRANCH   6  13
BRANCH   8  14
ATOM     14  O6  UNL     1     -20.953  62.522  87.838  0.00  0.00    +0.000 OA
ATOM     15  H20 UNL     1     -20.806  62.085  88.740  0.00  0.00    +0.000 HD
ENDBRANCH   8  14
ENDBRANCH   4  11
ENDBRANCH   2   5
ENDBRANCH   1   2
BRANCH   1  16
ATOM     16  C12 UNL     1     -19.396  59.187  80.009  0.00  0.00    +0.000 C 
ATOM     17  O3  UNL     1     -20.112  58.665  79.113  0.00  0.00    +0.000 OA
BRANCH  16  18
ATOM     18  C13 UNL     1     -19.685  58.844  81.419  0.00  0.00    +0.000 C 
ATOM     19  C14 UNL     1     -19.506  57.617  81.932  0.00  0.00    +0.000 C 
BRANCH  19  20
ATOM     20  C15 UNL     1     -19.784  57.273  83.348  0.00  0.00    +0.000 A 
ATOM     21  C16 UNL     1     -19.089  57.867  84.421  0.00  0.00    +0.000 A 
ATOM     22  C17 UNL     1     -19.392  57.520  85.753  0.00  0.00    +0.000 A 
ATOM     23  C18 UNL     1     -20.402  56.582  86.006  0.00  0.00    +0.000 A 
ATOM     24  C19 UNL     1     -21.107  56.005  84.944  0.00  0.00    +0.000 A 
ATOM     25  C20 UNL     1     -20.804  56.352  83.626  0.00  0.00    +0.000 A 
BRANCH  23  26
ATOM     26  O4  UNL     1     -20.705  56.234  87.321  0.00  0.00    +0.000 OA
ATOM     27  H16 UNL     1     -21.484  55.624  87.544  0.00  0.00    +0.000 HD
ENDBRANCH  23  26
BRANCH  22  28
ATOM     28  O5  UNL     1     -18.716  58.084  86.847  0.00  0.00    +0.000 OA
ATOM     29  C21 UNL     1     -18.032  57.336  87.847  0.00  0.00    +0.000 C 
ENDBRANCH  22  28
ENDBRANCH  19  20
ENDBRANCH  16  18
ENDBRANCH   1  16
TORSDOF 10
ENDMDL
MODEL 2
REMARK VINA RESULT:      -0.3      1.546      4.250
REMARK  Name = .\curcumin.pdb
REMARK  12 active torsions:
REMARK  status: ('A' for Active; 'I' for Inactive)
REMARK    1  A    between atoms: C1_1  and  O1_2
REMARK    2  A    between atoms: O1_2  and  C2_3
REMARK    3  A    between atoms: C4_5  and  O6_27
REMARK    4  A    between atoms: C7_8  and  C8_9
REMARK    5  A    between atoms: C9_10  and  C10_11
REMARK    6  A    between atoms: C10_11  and  C11_13
REMARK    7  A    between atoms: C11_13  and  C12_14
REMARK    8  A    between atoms: C12_14  and  C13_16
REMARK    9  A    between atoms: C14_17  and  C15_18
REMARK   10  A    between atoms: C17_20  and  O5_25
REMARK   11  A    between atoms: C18_21  and  O4_24
REMARK   12  A    between atoms: O5_25  and  C21_26
REMARK                            x       y       z     vdW  Elec       q    Type
REMARK                         _______ _______ _______ _____ _____    ______ ____
ROOT
ATOM      1  C11 UNL     1     -18.653  60.834  79.554  0.00  0.00    +0.000 C 
ENDROOT
BRANCH   1   2
ATOM      2  C10 UNL     1     -17.971  60.144  80.702  0.00  0.00    +0.000 C 
ATOM      3  O2  UNL     1     -16.721  60.241  80.826  0.00  0.00    +0.000 OA
BRANCH   2   5
ATOM      4  C8  UNL     1     -18.210  58.741  82.716  0.00  0.00    +0.000 C 
ATOM      5  C9  UNL     1     -18.771  59.395  81.692  0.00  0.00    +0.000 C 
BRANCH   4  11
ATOM      6  C2  UNL     1     -20.257  57.427  83.445  0.00  0.00    +0.000 A 
ATOM      7  C3  UNL     1     -20.960  56.764  84.471  0.00  0.00    +0.000 A 
ATOM      8  C4  UNL     1     -20.415  56.662  85.757  0.00  0.00    +0.000 A 
ATOM      9  C5  UNL     1     -19.162  57.215  86.027  0.00  0.00    +0.000 A 
ATOM     10  C6  UNL     1     -18.460  57.881  85.023  0.00  0.00    +0.000 A 
ATOM     11  C7  UNL     1     -19.004  58.017  83.736  0.00  0.00    +0.000 A 
BRANCH   6  13
ATOM     12  C1  UNL     1     -20.944  56.360  81.283  0.00  0.00    +0.000 C 
ATOM     13  O1  UNL     1     -20.759  57.486  82.134  0.00  0.00    +0.000 OA
ENDBRANCH   6  13
BRANCH   8  14
ATOM     14  O6  UNL     1     -21.108  56.005  86.772  0.00  0.00    +0.000 OA
ATOM     15  H20 UNL     1     -21.821  56.473  87.319  0.00  0.00    +0.000 HD
ENDBRANCH   8  14
ENDBRANCH   4  11
ENDBRANCH   2   5
ENDBRANCH   1   2
BRANCH   1  16
ATOM     16  C12 UNL     1     -19.888  61.591  79.986  0.00  0.00    +0.000 C 
ATOM     17  O3  UNL     1     -20.753  61.927  79.133  0.00  0.00    +0.000 OA
BRANCH  16  18
ATOM     18  C13 UNL     1     -20.125  61.961  81.399  0.00  0.00    +0.000 C 
ATOM     19  C14 UNL     1     -19.983  61.103  82.421  0.00  0.00    +0.000 C 
BRANCH  19  20
ATOM     20  C15 UNL     1     -20.208  61.474  83.839  0.00  0.00    +0.000 A 
ATOM     21  C16 UNL     1     -19.750  60.680  84.911  0.00  0.00    +0.000 A 
ATOM     22  C17 UNL     1     -19.976  61.076  86.245  0.00  0.00    +0.000 A 
ATOM     23  C18 UNL     1     -20.653  62.276  86.501  0.00  0.00    +0.000 A 
ATOM     24  C19 UNL     1     -21.092  63.075  85.440  0.00  0.00    +0.000 A 
ATOM     25  C20 UNL     1     -20.866  62.681  84.120  0.00  0.00    +0.000 A 
BRANCH  23  26
ATOM     26  O4  UNL     1     -20.881  62.670  87.818  0.00  0.00    +0.000 OA
ATOM     27  H16 UNL     1     -20.115  62.864  88.455  0.00  0.00    +0.000 HD
ENDBRANCH  23  26
BRANCH  22  28
ATOM     28  O5  UNL     1     -19.542  60.308  87.338  0.00  0.00    +0.000 OA
ATOM     29  C21 UNL     1     -20.404  59.737  88.316  0.00  0.00    +0.000 C 
ENDBRANCH  22  28
ENDBRANCH  19  20
ENDBRANCH  16  18
ENDBRANCH   1  16
TORSDOF 10
ENDMDL
