MODEL 1
REMARK VINA RESULT:      -5.6      0.000      0.000
REMARK  Name = .\curcumin.pdb
REMARK  12 active torsions:
REMARK  status: ('A' for Active; 'I' for Inactive)
REMARK    1  A    between atoms: C1_1  and  O1_2
REMARK    2  A    between atoms: O1_2  and  C2_3
REMARK    3  A    between atoms: C4_5  and  O6_27
REMARK    4  A    between atoms: C7_8  and  C8_9
REMARK    5  A    between atoms: C9_10  and  C10_11
REMARK    6  A    between atoms: C10_11  and  C11_13
REMARK    7  A    between atoms: C11_13  and  C12_14
REMARK    8  A    between atoms: C12_14  and  C13_16
REMARK    9  A    between atoms: C14_17  and  C15_18
REMARK   10  A    between atoms: C17_20  and  O5_25
REMARK   11  A    between atoms: C18_21  and  O4_24
REMARK   12  A    between atoms: O5_25  and  C21_26
REMARK                            x       y       z     vdW  Elec       q    Type
REMARK                         _______ _______ _______ _____ _____    ______ ____
ROOT
ATOM      1  C11 UNL     1     -11.472  73.664 -34.955  0.00  0.00    +0.000 C 
ENDROOT
BRANCH   1   2
ATOM      2  C10 UNL     1     -12.527  72.937 -34.169  0.00  0.00    +0.000 C 
ATOM      3  O2  UNL     1     -12.571  73.078 -32.917  0.00  0.00    +0.000 OA
BRANCH   2   5
ATOM      4  C8  UNL     1     -14.628  71.647 -34.263  0.00  0.00    +0.000 C 
ATOM      5  C9  UNL     1     -13.523  72.102 -34.869  0.00  0.00    +0.000 C 
BRANCH   4  11
ATOM      6  C2  UNL     1     -16.783  70.307 -34.303  0.00  0.00    +0.000 A 
ATOM      7  C3  UNL     1     -17.710  69.536 -35.035  0.00  0.00    +0.000 A 
ATOM      8  C4  UNL     1     -17.532  69.324 -36.408  0.00  0.00    +0.000 A 
ATOM      9  C5  UNL     1     -16.432  69.883 -37.060  0.00  0.00    +0.000 A 
ATOM     10  C6  UNL     1     -15.503  70.640 -36.347  0.00  0.00    +0.000 A 
ATOM     11  C7  UNL     1     -15.651  70.839 -34.965  0.00  0.00    +0.000 A 
BRANCH   6  13
ATOM     12  C1  UNL     1     -17.928  69.929 -32.105  0.00  0.00    +0.000 C 
ATOM     13  O1  UNL     1     -16.977  70.582 -32.938  0.00  0.00    +0.000 OA
ENDBRANCH   6  13
BRANCH   8  14
ATOM     14  O6  UNL     1     -18.448  68.566 -37.133  0.00  0.00    +0.000 OA
ATOM     15  H20 UNL     1     -18.471  67.555 -37.068  0.00  0.00    +0.000 HD
ENDBRANCH   8  14
ENDBRANCH   4  11
ENDBRANCH   2   5
ENDBRANCH   1   2
BRANCH   1  16
ATOM     16  C12 UNL     1     -10.263  72.801 -35.234  0.00  0.00    +0.000 C 
ATOM     17  O3  UNL     1     -10.382  71.547 -35.284  0.00  0.00    +0.000 OA
BRANCH  16  18
ATOM     18  C13 UNL     1      -8.921  73.381 -35.454  0.00  0.00    +0.000 C 
ATOM     19  C14 UNL     1      -8.656  74.289 -36.406  0.00  0.00    +0.000 C 
BRANCH  19  20
ATOM     20  C15 UNL     1      -7.313  74.882 -36.621  0.00  0.00    +0.000 A 
ATOM     21  C16 UNL     1      -6.284  74.197 -37.300  0.00  0.00    +0.000 A 
ATOM     22  C17 UNL     1      -5.025  74.801 -37.492  0.00  0.00    +0.000 A 
ATOM     23  C18 UNL     1      -4.805  76.099 -37.012  0.00  0.00    +0.000 A 
ATOM     24  C19 UNL     1      -5.830  76.788 -36.355  0.00  0.00    +0.000 A 
ATOM     25  C20 UNL     1      -7.076  76.187 -36.167  0.00  0.00    +0.000 A 
BRANCH  23  26
ATOM     26  O4  UNL     1      -3.561  76.700 -37.198  0.00  0.00    +0.000 OA
ATOM     27  H16 UNL     1      -2.896  76.346 -37.877  0.00  0.00    +0.000 HD
ENDBRANCH  23  26
BRANCH  22  28
ATOM     28  O5  UNL     1      -3.974  74.148 -38.156  0.00  0.00    +0.000 OA
ATOM     29  C21 UNL     1      -3.748  74.205 -39.561  0.00  0.00    +0.000 C 
ENDBRANCH  22  28
ENDBRANCH  19  20
ENDBRANCH  16  18
ENDBRANCH   1  16
TORSDOF 10
ENDMDL
MODEL 2
REMARK VINA RESULT:      -5.6      2.791      5.024
REMARK  Name = .\curcumin.pdb
REMARK  12 active torsions:
REMARK  status: ('A' for Active; 'I' for Inactive)
REMARK    1  A    between atoms: C1_1  and  O1_2
REMARK    2  A    between atoms: O1_2  and  C2_3
REMARK    3  A    between atoms: C4_5  and  O6_27
REMARK    4  A    between atoms: C7_8  and  C8_9
REMARK    5  A    between atoms: C9_10  and  C10_11
REMARK    6  A    between atoms: C10_11  and  C11_13
REMARK    7  A    between atoms: C11_13  and  C12_14
REMARK    8  A    between atoms: C12_14  and  C13_16
REMARK    9  A    between atoms: C14_17  and  C15_18
REMARK   10  A    between atoms: C17_20  and  O5_25
REMARK   11  A    between atoms: C18_21  and  O4_24
REMARK   12  A    between atoms: O5_25  and  C21_26
REMARK                            x       y       z     vdW  Elec       q    Type
REMARK                         _______ _______ _______ _____ _____    ______ ____
ROOT
ATOM      1  C11 UNL     1     -15.115  70.937 -34.284  0.00  0.00    +0.000 C 
ENDROOT
BRANCH   1   2
ATOM      2  C10 UNL     1     -16.477  70.481 -33.842  0.00  0.00    +0.000 C 
ATOM      3  O2  UNL     1     -16.791  70.566 -32.624  0.00  0.00    +0.000 OA
BRANCH   2   5
ATOM      4  C8  UNL     1     -17.060  69.372 -35.966  0.00  0.00    +0.000 C 
ATOM      5  C9  UNL     1     -17.445  69.978 -34.836  0.00  0.00    +0.000 C 
BRANCH   4  11
ATOM      6  C2  UNL     1     -18.583  69.627 -37.982  0.00  0.00    +0.000 A 
ATOM      7  C3  UNL     1     -19.502  69.044 -38.878  0.00  0.00    +0.000 A 
ATOM      8  C4  UNL     1     -19.835  67.688 -38.776  0.00  0.00    +0.000 A 
ATOM      9  C5  UNL     1     -19.249  66.902 -37.783  0.00  0.00    +0.000 A 
ATOM     10  C6  UNL     1     -18.345  67.467 -36.883  0.00  0.00    +0.000 A 
ATOM     11  C7  UNL     1     -18.022  68.832 -36.954  0.00  0.00    +0.000 A 
BRANCH   6  13
ATOM     12  C1  UNL     1     -17.141  71.435 -38.949  0.00  0.00    +0.000 C 
ATOM     13  O1  UNL     1     -18.190  70.970 -38.106  0.00  0.00    +0.000 OA
ENDBRANCH   6  13
BRANCH   8  14
ATOM     14  O6  UNL     1     -20.740  67.110 -39.663  0.00  0.00    +0.000 OA
ATOM     15  H20 UNL     1     -20.628  66.158 -39.992  0.00  0.00    +0.000 HD
ENDBRANCH   8  14
ENDBRANCH   4  11
ENDBRANCH   2   5
ENDBRANCH   1   2
BRANCH   1  16
ATOM     16  C12 UNL     1     -14.974  72.442 -34.261  0.00  0.00    +0.000 C 
ATOM     17  O3  UNL     1     -15.982  73.166 -34.043  0.00  0.00    +0.000 OA
BRANCH  16  18
ATOM     18  C13 UNL     1     -13.674  73.110 -34.489  0.00  0.00    +0.000 C 
ATOM     19  C14 UNL     1     -12.578  72.466 -34.919  0.00  0.00    +0.000 C 
BRANCH  19  20
ATOM     20  C15 UNL     1     -11.276  73.136 -35.160  0.00  0.00    +0.000 A 
ATOM     21  C16 UNL     1     -11.154  74.537 -35.261  0.00  0.00    +0.000 A 
ATOM     22  C17 UNL     1      -9.897  75.134 -35.480  0.00  0.00    +0.000 A 
ATOM     23  C18 UNL     1      -8.759  74.322 -35.586  0.00  0.00    +0.000 A 
ATOM     24  C19 UNL     1      -8.874  72.933 -35.467  0.00  0.00    +0.000 A 
ATOM     25  C20 UNL     1     -10.121  72.345 -35.250  0.00  0.00    +0.000 A 
BRANCH  23  26
ATOM     26  O4  UNL     1      -7.513  74.908 -35.804  0.00  0.00    +0.000 OA
ATOM     27  H16 UNL     1      -7.295  75.837 -35.461  0.00  0.00    +0.000 HD
ENDBRANCH  23  26
BRANCH  22  28
ATOM     28  O5  UNL     1      -9.737  76.525 -35.594  0.00  0.00    +0.000 OA
ATOM     29  C21 UNL     1      -9.858  77.442 -34.511  0.00  0.00    +0.000 C 
ENDBRANCH  22  28
ENDBRANCH  19  20
ENDBRANCH  16  18
ENDBRANCH   1  16
TORSDOF 10
ENDMDL
MODEL 3
REMARK VINA RESULT:      -5.5      1.492     11.071
REMARK  Name = .\curcumin.pdb
REMARK  12 active torsions:
REMARK  status: ('A' for Active; 'I' for Inactive)
REMARK    1  A    between atoms: C1_1  and  O1_2
REMARK    2  A    between atoms: O1_2  and  C2_3
REMARK    3  A    between atoms: C4_5  and  O6_27
REMARK    4  A    between atoms: C7_8  and  C8_9
REMARK    5  A    between atoms: C9_10  and  C10_11
REMARK    6  A    between atoms: C10_11  and  C11_13
REMARK    7  A    between atoms: C11_13  and  C12_14
REMARK    8  A    between atoms: C12_14  and  C13_16
REMARK    9  A    between atoms: C14_17  and  C15_18
REMARK   10  A    between atoms: C17_20  and  O5_25
REMARK   11  A    between atoms: C18_21  and  O4_24
REMARK   12  A    between atoms: O5_25  and  C21_26
REMARK                            x       y       z     vdW  Elec       q    Type
REMARK                         _______ _______ _______ _____ _____    ______ ____
ROOT
ATOM      1  C11 UNL     1     -12.403  73.632 -35.019  0.00  0.00    +0.000 C 
ENDROOT
BRANCH   1   2
ATOM      2  C10 UNL     1     -11.140  72.941 -35.450  0.00  0.00    +0.000 C 
ATOM      3  O2  UNL     1     -11.024  71.698 -35.273  0.00  0.00    +0.000 OA
BRANCH   2   5
ATOM      4  C8  UNL     1      -8.882  73.931 -35.528  0.00  0.00    +0.000 C 
ATOM      5  C9  UNL     1     -10.067  73.710 -36.111  0.00  0.00    +0.000 C 
BRANCH   4  11
ATOM      6  C2  UNL     1      -7.680  76.081 -36.144  0.00  0.00    +0.000 A 
ATOM      7  C3  UNL     1      -6.614  76.716 -36.815  0.00  0.00    +0.000 A 
ATOM      8  C4  UNL     1      -5.652  75.961 -37.498  0.00  0.00    +0.000 A 
ATOM      9  C5  UNL     1      -5.744  74.568 -37.512  0.00  0.00    +0.000 A 
ATOM     10  C6  UNL     1      -6.798  73.928 -36.861  0.00  0.00    +0.000 A 
ATOM     11  C7  UNL     1      -7.786  74.670 -36.195  0.00  0.00    +0.000 A 
BRANCH   6  13
ATOM     12  C1  UNL     1      -9.715  77.534 -35.962  0.00  0.00    +0.000 C 
ATOM     13  O1  UNL     1      -8.619  76.816 -35.402  0.00  0.00    +0.000 OA
ENDBRANCH   6  13
BRANCH   8  14
ATOM     14  O6  UNL     1      -4.597  76.587 -38.158  0.00  0.00    +0.000 OA
ATOM     15  H20 UNL     1      -4.115  77.382 -37.755  0.00  0.00    +0.000 HD
ENDBRANCH   8  14
ENDBRANCH   4  11
ENDBRANCH   2   5
ENDBRANCH   1   2
BRANCH   1  16
ATOM     16  C12 UNL     1     -13.075  72.935 -33.858  0.00  0.00    +0.000 C 
ATOM     17  O3  UNL     1     -12.596  73.039 -32.697  0.00  0.00    +0.000 OA
BRANCH  16  18
ATOM     18  C13 UNL     1     -14.295  72.118 -34.036  0.00  0.00    +0.000 C 
ATOM     19  C14 UNL     1     -14.524  71.358 -35.118  0.00  0.00    +0.000 C 
BRANCH  19  20
ATOM     20  C15 UNL     1     -15.742  70.529 -35.293  0.00  0.00    +0.000 A 
ATOM     21  C16 UNL     1     -16.785  70.506 -34.344  0.00  0.00    +0.000 A 
ATOM     22  C17 UNL     1     -17.929  69.712 -34.554  0.00  0.00    +0.000 A 
ATOM     23  C18 UNL     1     -18.032  68.949 -35.725  0.00  0.00    +0.000 A 
ATOM     24  C19 UNL     1     -17.007  68.983 -36.678  0.00  0.00    +0.000 A 
ATOM     25  C20 UNL     1     -15.875  69.772 -36.467  0.00  0.00    +0.000 A 
BRANCH  23  26
ATOM     26  O4  UNL     1     -19.161  68.160 -35.937  0.00  0.00    +0.000 OA
ATOM     27  H16 UNL     1     -19.946  68.494 -36.487  0.00  0.00    +0.000 HD
ENDBRANCH  23  26
BRANCH  22  28
ATOM     28  O5  UNL     1     -18.985  69.659 -33.629  0.00  0.00    +0.000 OA
ATOM     29  C21 UNL     1     -18.907  70.132 -32.288  0.00  0.00    +0.000 C 
ENDBRANCH  22  28
ENDBRANCH  19  20
ENDBRANCH  16  18
ENDBRANCH   1  16
TORSDOF 10
ENDMDL
MODEL 4
REMARK VINA RESULT:      -5.4      1.427      2.170
REMARK  Name = .\curcumin.pdb
REMARK  12 active torsions:
REMARK  status: ('A' for Active; 'I' for Inactive)
REMARK    1  A    between atoms: C1_1  and  O1_2
REMARK    2  A    between atoms: O1_2  and  C2_3
REMARK    3  A    between atoms: C4_5  and  O6_27
REMARK    4  A    between atoms: C7_8  and  C8_9
REMARK    5  A    between atoms: C9_10  and  C10_11
REMARK    6  A    between atoms: C10_11  and  C11_13
REMARK    7  A    between atoms: C11_13  and  C12_14
REMARK    8  A    between atoms: C12_14  and  C13_16
REMARK    9  A    between atoms: C14_17  and  C15_18
REMARK   10  A    between atoms: C17_20  and  O5_25
REMARK   11  A    between atoms: C18_21  and  O4_24
REMARK   12  A    between atoms: O5_25  and  C21_26
REMARK                            x       y       z     vdW  Elec       q    Type
REMARK                         _______ _______ _______ _____ _____    ______ ____
ROOT
ATOM      1  C11 UNL     1     -11.604  73.623 -35.059  0.00  0.00    +0.000 C 
ENDROOT
BRANCH   1   2
ATOM      2  C10 UNL     1     -12.589  72.934 -34.157  0.00  0.00    +0.000 C 
ATOM      3  O2  UNL     1     -12.575  73.185 -32.922  0.00  0.00    +0.000 OA
BRANCH   2   5
ATOM      4  C8  UNL     1     -14.419  72.367 -35.710  0.00  0.00    +0.000 C 
ATOM      5  C9  UNL     1     -13.586  72.006 -34.726  0.00  0.00    +0.000 C 
BRANCH   4  11
ATOM      6  C2  UNL     1     -16.026  71.692 -37.556  0.00  0.00    +0.000 A 
ATOM      7  C3  UNL     1     -16.957  70.762 -38.062  0.00  0.00    +0.000 A 
ATOM      8  C4  UNL     1     -17.237  69.581 -37.363  0.00  0.00    +0.000 A 
ATOM      9  C5  UNL     1     -16.585  69.317 -36.157  0.00  0.00    +0.000 A 
ATOM     10  C6  UNL     1     -15.669  70.233 -35.640  0.00  0.00    +0.000 A 
ATOM     11  C7  UNL     1     -15.398  71.434 -36.314  0.00  0.00    +0.000 A 
BRANCH   6  13
ATOM     12  C1  UNL     1     -16.560  73.957 -38.489  0.00  0.00    +0.000 C 
ATOM     13  O1  UNL     1     -15.687  72.852 -38.272  0.00  0.00    +0.000 OA
ENDBRANCH   6  13
BRANCH   8  14
ATOM     14  O6  UNL     1     -18.154  68.659 -37.863  0.00  0.00    +0.000 OA
ATOM     15  H20 UNL     1     -17.913  67.683 -37.985  0.00  0.00    +0.000 HD
ENDBRANCH   8  14
ENDBRANCH   4  11
ENDBRANCH   2   5
ENDBRANCH   1   2
BRANCH   1  16
ATOM     16  C12 UNL     1     -10.352  72.805 -35.279  0.00  0.00    +0.000 C 
ATOM     17  O3  UNL     1     -10.423  71.548 -35.337  0.00  0.00    +0.000 OA
BRANCH  16  18
ATOM     18  C13 UNL     1      -9.022  73.433 -35.430  0.00  0.00    +0.000 C 
ATOM     19  C14 UNL     1      -8.667  74.161 -36.501  0.00  0.00    +0.000 C 
BRANCH  19  20
ATOM     20  C15 UNL     1      -7.337  74.803 -36.650  0.00  0.00    +0.000 A 
ATOM     21  C16 UNL     1      -6.265  74.175 -37.318  0.00  0.00    +0.000 A 
ATOM     22  C17 UNL     1      -5.022  74.825 -37.446  0.00  0.00    +0.000 A 
ATOM     23  C18 UNL     1      -4.859  76.111 -36.914  0.00  0.00    +0.000 A 
ATOM     24  C19 UNL     1      -5.926  76.744 -36.267  0.00  0.00    +0.000 A 
ATOM     25  C20 UNL     1      -7.157  76.097 -36.142  0.00  0.00    +0.000 A 
BRANCH  23  26
ATOM     26  O4  UNL     1      -3.630  76.757 -37.037  0.00  0.00    +0.000 OA
ATOM     27  H16 UNL     1      -2.774  76.344 -36.681  0.00  0.00    +0.000 HD
ENDBRANCH  23  26
BRANCH  22  28
ATOM     28  O5  UNL     1      -3.929  74.230 -38.098  0.00  0.00    +0.000 OA
ATOM     29  C21 UNL     1      -3.724  74.243 -39.507  0.00  0.00    +0.000 C 
ENDBRANCH  22  28
ENDBRANCH  19  20
ENDBRANCH  16  18
ENDBRANCH   1  16
TORSDOF 10
ENDMDL
MODEL 5
REMARK VINA RESULT:      -5.3      2.805     10.990
REMARK  Name = .\curcumin.pdb
REMARK  12 active torsions:
REMARK  status: ('A' for Active; 'I' for Inactive)
REMARK    1  A    between atoms: C1_1  and  O1_2
REMARK    2  A    between atoms: O1_2  and  C2_3
REMARK    3  A    between atoms: C4_5  and  O6_27
REMARK    4  A    between atoms: C7_8  and  C8_9
REMARK    5  A    between atoms: C9_10  and  C10_11
REMARK    6  A    between atoms: C10_11  and  C11_13
REMARK    7  A    between atoms: C11_13  and  C12_14
REMARK    8  A    between atoms: C12_14  and  C13_16
REMARK    9  A    between atoms: C14_17  and  C15_18
REMARK   10  A    between atoms: C17_20  and  O5_25
REMARK   11  A    between atoms: C18_21  and  O4_24
REMARK   12  A    between atoms: O5_25  and  C21_26
REMARK                            x       y       z     vdW  Elec       q    Type
REMARK                         _______ _______ _______ _____ _____    ______ ____
ROOT
ATOM      1  C11 UNL     1     -15.156  70.729 -34.155  0.00  0.00    +0.000 C 
ENDROOT
BRANCH   1   2
ATOM      2  C10 UNL     1     -14.895  72.208 -34.212  0.00  0.00    +0.000 C 
ATOM      3  O2  UNL     1     -15.854  73.011 -34.056  0.00  0.00    +0.000 OA
BRANCH   2   5
ATOM      4  C8  UNL     1     -12.777  72.357 -35.468  0.00  0.00    +0.000 C 
ATOM      5  C9  UNL     1     -13.519  72.707 -34.410  0.00  0.00    +0.000 C 
BRANCH   4  11
ATOM      6  C2  UNL     1     -11.160  74.050 -36.450  0.00  0.00    +0.000 A 
ATOM      7  C3  UNL     1      -9.830  74.480 -36.634  0.00  0.00    +0.000 A 
ATOM      8  C4  UNL     1      -8.767  73.777 -36.052  0.00  0.00    +0.000 A 
ATOM      9  C5  UNL     1      -9.025  72.644 -35.279  0.00  0.00    +0.000 A 
ATOM     10  C6  UNL     1     -10.336  72.203 -35.096  0.00  0.00    +0.000 A 
ATOM     11  C7  UNL     1     -11.410  72.880 -35.695  0.00  0.00    +0.000 A 
BRANCH   6  13
ATOM     12  C1  UNL     1     -12.736  76.000 -36.438  0.00  0.00    +0.000 C 
ATOM     13  O1  UNL     1     -12.243  74.777 -36.974  0.00  0.00    +0.000 OA
ENDBRANCH   6  13
BRANCH   8  14
ATOM     14  O6  UNL     1      -7.452  74.202 -36.230  0.00  0.00    +0.000 OA
ATOM     15  H20 UNL     1      -6.778  74.173 -35.475  0.00  0.00    +0.000 HD
ENDBRANCH   8  14
ENDBRANCH   4  11
ENDBRANCH   2   5
ENDBRANCH   1   2
BRANCH   1  16
ATOM     16  C12 UNL     1     -16.600  70.409 -33.845  0.00  0.00    +0.000 C 
ATOM     17  O3  UNL     1     -17.034  70.533 -32.668  0.00  0.00    +0.000 OA
BRANCH  16  18
ATOM     18  C13 UNL     1     -17.541  69.948 -34.888  0.00  0.00    +0.000 C 
ATOM     19  C14 UNL     1     -17.154  69.303 -35.999  0.00  0.00    +0.000 C 
BRANCH  19  20
ATOM     20  C15 UNL     1     -18.097  68.828 -37.041  0.00  0.00    +0.000 A 
ATOM     21  C16 UNL     1     -18.638  69.687 -38.020  0.00  0.00    +0.000 A 
ATOM     22  C17 UNL     1     -19.523  69.193 -38.999  0.00  0.00    +0.000 A 
ATOM     23  C18 UNL     1     -19.856  67.832 -39.001  0.00  0.00    +0.000 A 
ATOM     24  C19 UNL     1     -19.307  66.973 -38.042  0.00  0.00    +0.000 A 
ATOM     25  C20 UNL     1     -18.430  67.466 -37.074  0.00  0.00    +0.000 A 
BRANCH  23  26
ATOM     26  O4  UNL     1     -20.733  67.338 -39.966  0.00  0.00    +0.000 OA
ATOM     27  H16 UNL     1     -20.397  66.970 -40.850  0.00  0.00    +0.000 HD
ENDBRANCH  23  26
BRANCH  22  28
ATOM     28  O5  UNL     1     -20.087  70.019 -39.985  0.00  0.00    +0.000 OA
ATOM     29  C21 UNL     1     -19.456  71.175 -40.527  0.00  0.00    +0.000 C 
ENDBRANCH  22  28
ENDBRANCH  19  20
ENDBRANCH  16  18
ENDBRANCH   1  16
TORSDOF 10
ENDMDL
MODEL 6
REMARK VINA RESULT:      -5.3      1.432      2.295
REMARK  Name = .\curcumin.pdb
REMARK  12 active torsions:
REMARK  status: ('A' for Active; 'I' for Inactive)
REMARK    1  A    between atoms: C1_1  and  O1_2
REMARK    2  A    between atoms: O1_2  and  C2_3
REMARK    3  A    between atoms: C4_5  and  O6_27
REMARK    4  A    between atoms: C7_8  and  C8_9
REMARK    5  A    between atoms: C9_10  and  C10_11
REMARK    6  A    between atoms: C10_11  and  C11_13
REMARK    7  A    between atoms: C11_13  and  C12_14
REMARK    8  A    between atoms: C12_14  and  C13_16
REMARK    9  A    between atoms: C14_17  and  C15_18
REMARK   10  A    between atoms: C17_20  and  O5_25
REMARK   11  A    between atoms: C18_21  and  O4_24
REMARK   12  A    between atoms: O5_25  and  C21_26
REMARK                            x       y       z     vdW  Elec       q    Type
REMARK                         _______ _______ _______ _____ _____    ______ ____
ROOT
ATOM      1  C11 UNL     1     -11.886  72.091 -35.027  0.00  0.00    +0.000 C 
ENDROOT
BRANCH   1   2
ATOM      2  C10 UNL     1     -12.847  72.621 -33.999  0.00  0.00    +0.000 C 
ATOM      3  O2  UNL     1     -12.538  73.649 -33.338  0.00  0.00    +0.000 OA
BRANCH   2   5
ATOM      4  C8  UNL     1     -14.820  71.381 -34.807  0.00  0.00    +0.000 C 
ATOM      5  C9  UNL     1     -14.153  71.962 -33.802  0.00  0.00    +0.000 C 
BRANCH   4  11
ATOM      6  C2  UNL     1     -16.793  70.040 -35.674  0.00  0.00    +0.000 A 
ATOM      7  C3  UNL     1     -18.027  69.408 -35.417  0.00  0.00    +0.000 A 
ATOM      8  C4  UNL     1     -18.561  69.391 -34.122  0.00  0.00    +0.000 A 
ATOM      9  C5  UNL     1     -17.866  69.998 -33.076  0.00  0.00    +0.000 A 
ATOM     10  C6  UNL     1     -16.649  70.634 -33.318  0.00  0.00    +0.000 A 
ATOM     11  C7  UNL     1     -16.112  70.686 -34.615  0.00  0.00    +0.000 A 
BRANCH   6  13
ATOM     12  C1  UNL     1     -16.715  70.712 -38.088  0.00  0.00    +0.000 C 
ATOM     13  O1  UNL     1     -16.211  70.015 -36.953  0.00  0.00    +0.000 OA
ENDBRANCH   6  13
BRANCH   8  14
ATOM     14  O6  UNL     1     -19.779  68.764 -33.866  0.00  0.00    +0.000 OA
ATOM     15  H20 UNL     1     -20.437  69.138 -33.192  0.00  0.00    +0.000 HD
ENDBRANCH   8  14
ENDBRANCH   4  11
ENDBRANCH   2   5
ENDBRANCH   1   2
BRANCH   1  16
ATOM     16  C12 UNL     1     -11.761  73.004 -36.225  0.00  0.00    +0.000 C 
ATOM     17  O3  UNL     1     -12.653  73.001 -37.116  0.00  0.00    +0.000 OA
BRANCH  16  18
ATOM     18  C13 UNL     1     -10.611  73.918 -36.397  0.00  0.00    +0.000 C 
ATOM     19  C14 UNL     1      -9.347  73.579 -36.098  0.00  0.00    +0.000 C 
BRANCH  19  20
ATOM     20  C15 UNL     1      -8.190  74.490 -36.280  0.00  0.00    +0.000 A 
ATOM     21  C16 UNL     1      -6.943  74.041 -36.761  0.00  0.00    +0.000 A 
ATOM     22  C17 UNL     1      -5.873  74.942 -36.930  0.00  0.00    +0.000 A 
ATOM     23  C18 UNL     1      -6.060  76.297 -36.627  0.00  0.00    +0.000 A 
ATOM     24  C19 UNL     1      -7.302  76.749 -36.167  0.00  0.00    +0.000 A 
ATOM     25  C20 UNL     1      -8.361  75.854 -36.002  0.00  0.00    +0.000 A 
BRANCH  23  26
ATOM     26  O4  UNL     1      -5.004  77.192 -36.790  0.00  0.00    +0.000 OA
ATOM     27  H16 UNL     1      -5.126  78.189 -36.650  0.00  0.00    +0.000 HD
ENDBRANCH  23  26
BRANCH  22  28
ATOM     28  O5  UNL     1      -4.614  74.531 -37.399  0.00  0.00    +0.000 OA
ATOM     29  C21 UNL     1      -4.255  74.443 -38.774  0.00  0.00    +0.000 C 
ENDBRANCH  22  28
ENDBRANCH  19  20
ENDBRANCH  16  18
ENDBRANCH   1  16
TORSDOF 10
ENDMDL
MODEL 7
REMARK VINA RESULT:      -5.2      1.939     10.628
REMARK  Name = .\curcumin.pdb
REMARK  12 active torsions:
REMARK  status: ('A' for Active; 'I' for Inactive)
REMARK    1  A    between atoms: C1_1  and  O1_2
REMARK    2  A    between atoms: O1_2  and  C2_3
REMARK    3  A    between atoms: C4_5  and  O6_27
REMARK    4  A    between atoms: C7_8  and  C8_9
REMARK    5  A    between atoms: C9_10  and  C10_11
REMARK    6  A    between atoms: C10_11  and  C11_13
REMARK    7  A    between atoms: C11_13  and  C12_14
REMARK    8  A    between atoms: C12_14  and  C13_16
REMARK    9  A    between atoms: C14_17  and  C15_18
REMARK   10  A    between atoms: C17_20  and  O5_25
REMARK   11  A    between atoms: C18_21  and  O4_24
REMARK   12  A    between atoms: O5_25  and  C21_26
REMARK                            x       y       z     vdW  Elec       q    Type
REMARK                         _______ _______ _______ _____ _____    ______ ____
ROOT
ATOM      1  C11 UNL     1     -14.202  74.346 -34.064  0.00  0.00    +0.000 C 
ENDROOT
BRANCH   1   2
ATOM      2  C10 UNL     1     -13.848  74.804 -35.451  0.00  0.00    +0.000 C 
ATOM      3  O2  UNL     1     -14.737  75.330 -36.173  0.00  0.00    +0.000 OA
BRANCH   2   5
ATOM      4  C8  UNL     1     -11.412  75.127 -35.244  0.00  0.00    +0.000 C 
ATOM      5  C9  UNL     1     -12.461  74.672 -35.940  0.00  0.00    +0.000 C 
BRANCH   4  11
ATOM      6  C2  UNL     1      -9.297  73.757 -35.557  0.00  0.00    +0.000 A 
ATOM      7  C3  UNL     1      -7.964  73.685 -36.011  0.00  0.00    +0.000 A 
ATOM      8  C4  UNL     1      -7.363  74.788 -36.632  0.00  0.00    +0.000 A 
ATOM      9  C5  UNL     1      -8.089  75.966 -36.809  0.00  0.00    +0.000 A 
ATOM     10  C6  UNL     1      -9.406  76.054 -36.356  0.00  0.00    +0.000 A 
ATOM     11  C7  UNL     1     -10.014  74.968 -35.706  0.00  0.00    +0.000 A 
BRANCH   6  13
ATOM     12  C1  UNL     1     -10.442  71.533 -35.720  0.00  0.00    +0.000 C 
ATOM     13  O1  UNL     1      -9.937  72.643 -34.987  0.00  0.00    +0.000 OA
ENDBRANCH   6  13
BRANCH   8  14
ATOM     14  O6  UNL     1      -6.047  74.717 -37.085  0.00  0.00    +0.000 OA
ATOM     15  H20 UNL     1      -5.792  74.156 -37.889  0.00  0.00    +0.000 HD
ENDBRANCH   8  14
ENDBRANCH   4  11
ENDBRANCH   2   5
ENDBRANCH   1   2
BRANCH   1  16
ATOM     16  C12 UNL     1     -14.104  72.845 -33.909  0.00  0.00    +0.000 C 
ATOM     17  O3  UNL     1     -13.049  72.325 -33.457  0.00  0.00    +0.000 OA
BRANCH  16  18
ATOM     18  C13 UNL     1     -15.220  71.946 -34.274  0.00  0.00    +0.000 C 
ATOM     19  C14 UNL     1     -15.113  70.969 -35.188  0.00  0.00    +0.000 C 
BRANCH  19  20
ATOM     20  C15 UNL     1     -16.228  70.058 -35.548  0.00  0.00    +0.000 A 
ATOM     21  C16 UNL     1     -17.423  69.995 -34.802  0.00  0.00    +0.000 A 
ATOM     22  C17 UNL     1     -18.461  69.123 -35.185  0.00  0.00    +0.000 A 
ATOM     23  C18 UNL     1     -18.304  68.322 -36.324  0.00  0.00    +0.000 A 
ATOM     24  C19 UNL     1     -17.126  68.397 -37.077  0.00  0.00    +0.000 A 
ATOM     25  C20 UNL     1     -16.099  69.262 -36.696  0.00  0.00    +0.000 A 
BRANCH  23  26
ATOM     26  O4  UNL     1     -19.327  67.457 -36.705  0.00  0.00    +0.000 OA
ATOM     27  H16 UNL     1     -19.554  67.299 -37.682  0.00  0.00    +0.000 HD
ENDBRANCH  23  26
BRANCH  22  28
ATOM     28  O5  UNL     1     -19.663  69.026 -34.463  0.00  0.00    +0.000 OA
ATOM     29  C21 UNL     1     -20.845  69.760 -34.763  0.00  0.00    +0.000 C 
ENDBRANCH  22  28
ENDBRANCH  19  20
ENDBRANCH  16  18
ENDBRANCH   1  16
TORSDOF 10
ENDMDL
MODEL 8
REMARK VINA RESULT:      -5.2      1.558      2.362
REMARK  Name = .\curcumin.pdb
REMARK  12 active torsions:
REMARK  status: ('A' for Active; 'I' for Inactive)
REMARK    1  A    between atoms: C1_1  and  O1_2
REMARK    2  A    between atoms: O1_2  and  C2_3
REMARK    3  A    between atoms: C4_5  and  O6_27
REMARK    4  A    between atoms: C7_8  and  C8_9
REMARK    5  A    between atoms: C9_10  and  C10_11
REMARK    6  A    between atoms: C10_11  and  C11_13
REMARK    7  A    between atoms: C11_13  and  C12_14
REMARK    8  A    between atoms: C12_14  and  C13_16
REMARK    9  A    between atoms: C14_17  and  C15_18
REMARK   10  A    between atoms: C17_20  and  O5_25
REMARK   11  A    between atoms: C18_21  and  O4_24
REMARK   12  A    between atoms: O5_25  and  C21_26
REMARK                            x       y       z     vdW  Elec       q    Type
REMARK                         _______ _______ _______ _____ _____    ______ ____
ROOT
ATOM      1  C11 UNL     1     -12.943  72.211 -35.130  0.00  0.00    +0.000 C 
ENDROOT
BRANCH   1   2
ATOM      2  C10 UNL     1     -14.208  72.747 -35.739  0.00  0.00    +0.000 C 
ATOM      3  O2  UNL     1     -14.298  73.978 -35.991  0.00  0.00    +0.000 OA
BRANCH   2   5
ATOM      4  C8  UNL     1     -15.468  70.644 -35.463  0.00  0.00    +0.000 C 
ATOM      5  C9  UNL     1     -15.313  71.827 -36.072  0.00  0.00    +0.000 C 
BRANCH   4  11
ATOM      6  C2  UNL     1     -17.752  69.661 -34.954  0.00  0.00    +0.000 A 
ATOM      7  C3  UNL     1     -18.777  68.755 -35.296  0.00  0.00    +0.000 A 
ATOM      8  C4  UNL     1     -18.668  67.954 -36.440  0.00  0.00    +0.000 A 
ATOM      9  C5  UNL     1     -17.538  68.055 -37.253  0.00  0.00    +0.000 A 
ATOM     10  C6  UNL     1     -16.512  68.939 -36.921  0.00  0.00    +0.000 A 
ATOM     11  C7  UNL     1     -16.593  69.729 -35.763  0.00  0.00    +0.000 A 
BRANCH   6  13
ATOM     12  C1  UNL     1     -17.985  70.082 -32.493  0.00  0.00    +0.000 C 
ATOM     13  O1  UNL     1     -17.870  70.516 -33.845  0.00  0.00    +0.000 OA
ENDBRANCH   6  13
BRANCH   8  14
ATOM     14  O6  UNL     1     -19.682  67.062 -36.781  0.00  0.00    +0.000 OA
ATOM     15  H20 UNL     1     -19.812  66.746 -37.735  0.00  0.00    +0.000 HD
ENDBRANCH   8  14
ENDBRANCH   4  11
ENDBRANCH   2   5
ENDBRANCH   1   2
BRANCH   1  16
ATOM     16  C12 UNL     1     -12.383  73.124 -34.063  0.00  0.00    +0.000 C 
ATOM     17  O3  UNL     1     -12.818  73.055 -32.883  0.00  0.00    +0.000 OA
BRANCH  16  18
ATOM     18  C13 UNL     1     -11.325  74.114 -34.358  0.00  0.00    +0.000 C 
ATOM     19  C14 UNL     1     -10.413  73.954 -35.329  0.00  0.00    +0.000 C 
BRANCH  19  20
ATOM     20  C15 UNL     1      -9.358  74.952 -35.634  0.00  0.00    +0.000 A 
ATOM     21  C16 UNL     1      -8.188  74.621 -36.349  0.00  0.00    +0.000 A 
ATOM     22  C17 UNL     1      -7.215  75.602 -36.626  0.00  0.00    +0.000 A 
ATOM     23  C18 UNL     1      -7.424  76.919 -36.196  0.00  0.00    +0.000 A 
ATOM     24  C19 UNL     1      -8.592  77.255 -35.503  0.00  0.00    +0.000 A 
ATOM     25  C20 UNL     1      -9.554  76.281 -35.230  0.00  0.00    +0.000 A 
BRANCH  23  26
ATOM     26  O4  UNL     1      -6.464  77.893 -36.466  0.00  0.00    +0.000 OA
ATOM     27  H16 UNL     1      -5.986  77.934 -37.360  0.00  0.00    +0.000 HD
ENDBRANCH  23  26
BRANCH  22  28
ATOM     28  O5  UNL     1      -6.034  75.309 -37.328  0.00  0.00    +0.000 OA
ATOM     29  C21 UNL     1      -5.477  74.006 -37.461  0.00  0.00    +0.000 C 
ENDBRANCH  22  28
ENDBRANCH  19  20
ENDBRANCH  16  18
ENDBRANCH   1  16
TORSDOF 10
ENDMDL
MODEL 9
REMARK VINA RESULT:      -5.1      2.064     11.202
REMARK  Name = .\curcumin.pdb
REMARK  12 active torsions:
REMARK  status: ('A' for Active; 'I' for Inactive)
REMARK    1  A    between atoms: C1_1  and  O1_2
REMARK    2  A    between atoms: O1_2  and  C2_3
REMARK    3  A    between atoms: C4_5  and  O6_27
REMARK    4  A    between atoms: C7_8  and  C8_9
REMARK    5  A    between atoms: C9_10  and  C10_11
REMARK    6  A    between atoms: C10_11  and  C11_13
REMARK    7  A    between atoms: C11_13  and  C12_14
REMARK    8  A    between atoms: C12_14  and  C13_16
REMARK    9  A    between atoms: C14_17  and  C15_18
REMARK   10  A    between atoms: C17_20  and  O5_25
REMARK   11  A    between atoms: C18_21  and  O4_24
REMARK   12  A    between atoms: O5_25  and  C21_26
REMARK                            x       y       z     vdW  Elec       q    Type
REMARK                         _______ _______ _______ _____ _____    ______ ____
ROOT
ATOM      1  C11 UNL     1     -13.985  73.262 -34.449  0.00  0.00    +0.000 C 
ENDROOT
BRANCH   1   2
ATOM      2  C10 UNL     1     -12.739  73.032 -33.641  0.00  0.00    +0.000 C 
ATOM      3  O2  UNL     1     -12.840  72.604 -32.460  0.00  0.00    +0.000 OA
BRANCH   2   5
ATOM      4  C8  UNL     1     -11.124  74.389 -34.920  0.00  0.00    +0.000 C 
ATOM      5  C9  UNL     1     -11.414  73.268 -34.247  0.00  0.00    +0.000 C 
BRANCH   4  11
ATOM      6  C2  UNL     1      -9.380  75.944 -35.910  0.00  0.00    +0.000 A 
ATOM      7  C3  UNL     1      -8.095  76.116 -36.466  0.00  0.00    +0.000 A 
ATOM      8  C4  UNL     1      -7.219  75.030 -36.583  0.00  0.00    +0.000 A 
ATOM      9  C5  UNL     1      -7.615  73.767 -36.142  0.00  0.00    +0.000 A 
ATOM     10  C6  UNL     1      -8.887  73.581 -35.599  0.00  0.00    +0.000 A 
ATOM     11  C7  UNL     1      -9.788  74.653 -35.500  0.00  0.00    +0.000 A 
BRANCH   6  13
ATOM     12  C1  UNL     1     -10.704  77.893 -36.769  0.00  0.00    +0.000 C 
ATOM     13  O1  UNL     1     -10.250  77.032 -35.729  0.00  0.00    +0.000 OA
ENDBRANCH   6  13
BRANCH   8  14
ATOM     14  O6  UNL     1      -5.948  75.199 -37.129  0.00  0.00    +0.000 OA
ATOM     15  H20 UNL     1      -5.815  75.593 -38.053  0.00  0.00    +0.000 HD
ENDBRANCH   8  14
ENDBRANCH   4  11
ENDBRANCH   2   5
ENDBRANCH   1   2
BRANCH   1  16
ATOM     16  C12 UNL     1     -14.248  72.146 -35.435  0.00  0.00    +0.000 C 
ATOM     17  O3  UNL     1     -13.442  71.938 -36.381  0.00  0.00    +0.000 OA
BRANCH  16  18
ATOM     18  C13 UNL     1     -15.438  71.274 -35.331  0.00  0.00    +0.000 C 
ATOM     19  C14 UNL     1     -15.768  70.362 -36.259  0.00  0.00    +0.000 C 
BRANCH  19  20
ATOM     20  C15 UNL     1     -16.954  69.477 -36.151  0.00  0.00    +0.000 A 
ATOM     21  C16 UNL     1     -17.963  69.678 -35.187  0.00  0.00    +0.000 A 
ATOM     22  C17 UNL     1     -19.078  68.819 -35.125  0.00  0.00    +0.000 A 
ATOM     23  C18 UNL     1     -19.186  67.765 -36.042  0.00  0.00    +0.000 A 
ATOM     24  C19 UNL     1     -18.196  67.574 -37.012  0.00  0.00    +0.000 A 
ATOM     25  C20 UNL     1     -17.092  68.427 -37.071  0.00  0.00    +0.000 A 
BRANCH  23  26
ATOM     26  O4  UNL     1     -20.287  66.912 -35.984  0.00  0.00    +0.000 OA
ATOM     27  H16 UNL     1     -21.088  67.036 -36.594  0.00  0.00    +0.000 HD
ENDBRANCH  23  26
BRANCH  22  28
ATOM     28  O5  UNL     1     -20.099  68.984 -34.175  0.00  0.00    +0.000 OA
ATOM     29  C21 UNL     1     -20.001  68.591 -32.810  0.00  0.00    +0.000 C 
ENDBRANCH  22  28
ENDBRANCH  19  20
ENDBRANCH  16  18
ENDBRANCH   1  16
TORSDOF 10
ENDMDL
