MODEL 1
REMARK VINA RESULT:     111.9      0.000      0.000
REMARK  Name = .\curcumin.pdb
REMARK  12 active torsions:
REMARK  status: ('A' for Active; 'I' for Inactive)
REMARK    1  A    between atoms: C1_1  and  O1_2
REMARK    2  A    between atoms: O1_2  and  C2_3
REMARK    3  A    between atoms: C4_5  and  O6_27
REMARK    4  A    between atoms: C7_8  and  C8_9
REMARK    5  A    between atoms: C9_10  and  C10_11
REMARK    6  A    between atoms: C10_11  and  C11_13
REMARK    7  A    between atoms: C11_13  and  C12_14
REMARK    8  A    between atoms: C12_14  and  C13_16
REMARK    9  A    between atoms: C14_17  and  C15_18
REMARK   10  A    between atoms: C17_20  and  O5_25
REMARK   11  A    between atoms: C18_21  and  O4_24
REMARK   12  A    between atoms: O5_25  and  C21_26
REMARK                            x       y       z     vdW  Elec       q    Type
REMARK                         _______ _______ _______ _____ _____    ______ ____
ROOT
ATOM      1  C11 UNL     1      -2.510  49.053  -4.959  0.00  0.00    +0.000 C 
ENDROOT
BRANCH   1   2
ATOM      2  C10 UNL     1      -2.985  49.578  -6.285  0.00  0.00    +0.000 C 
ATOM      3  O2  UNL     1      -2.525  49.079  -7.347  0.00  0.00    +0.000 OA
BRANCH   2   5
ATOM      4  C8  UNL     1      -4.178  51.423  -7.406  0.00  0.00    +0.000 C 
ATOM      5  C9  UNL     1      -4.011  50.639  -6.334  0.00  0.00    +0.000 C 
BRANCH   4  11
ATOM      6  C2  UNL     1      -4.955  53.788  -7.907  0.00  0.00    +0.000 A 
ATOM      7  C3  UNL     1      -6.003  54.730  -7.940  0.00  0.00    +0.000 A 
ATOM      8  C4  UNL     1      -7.306  54.358  -7.586  0.00  0.00    +0.000 A 
ATOM      9  C5  UNL     1      -7.573  53.043  -7.202  0.00  0.00    +0.000 A 
ATOM     10  C6  UNL     1      -6.544  52.103  -7.155  0.00  0.00    +0.000 A 
ATOM     11  C7  UNL     1      -5.227  52.466  -7.480  0.00  0.00    +0.000 A 
BRANCH   6  13
ATOM     12  C1  UNL     1      -2.825  55.091  -7.676  0.00  0.00    +0.000 C 
ATOM     13  O1  UNL     1      -3.654  54.126  -8.316  0.00  0.00    +0.000 OA
ENDBRANCH   6  13
BRANCH   8  14
ATOM     14  O6  UNL     1      -8.344  55.287  -7.621  0.00  0.00    +0.000 OA
ATOM     15  H20 UNL     1      -9.059  55.312  -6.904  0.00  0.00    +0.000 HD
ENDBRANCH   8  14
ENDBRANCH   4  11
ENDBRANCH   2   5
ENDBRANCH   1   2
BRANCH   1  16
ATOM     16  C12 UNL     1      -3.296  49.619  -3.799  0.00  0.00    +0.000 C 
ATOM     17  O3  UNL     1      -3.220  49.080  -2.663  0.00  0.00    +0.000 OA
BRANCH  16  18
ATOM     18  C13 UNL     1      -4.168  50.805  -3.948  0.00  0.00    +0.000 C 
ATOM     19  C14 UNL     1      -5.498  50.727  -4.113  0.00  0.00    +0.000 C 
BRANCH  19  20
ATOM     20  C15 UNL     1      -6.376  51.915  -4.251  0.00  0.00    +0.000 A 
ATOM     21  C16 UNL     1      -6.961  52.285  -5.480  0.00  0.00    +0.000 A 
ATOM     22  C17 UNL     1      -7.798  53.415  -5.565  0.00  0.00    +0.000 A 
ATOM     23  C18 UNL     1      -8.058  54.167  -4.411  0.00  0.00    +0.000 A 
ATOM     24  C19 UNL     1      -7.494  53.792  -3.187  0.00  0.00    +0.000 A 
ATOM     25  C20 UNL     1      -6.665  52.672  -3.106  0.00  0.00    +0.000 A 
BRANCH  23  26
ATOM     26  O4  UNL     1      -8.883  55.287  -4.490  0.00  0.00    +0.000 OA
ATOM     27  H16 UNL     1      -8.837  56.031  -3.802  0.00  0.00    +0.000 HD
ENDBRANCH  23  26
BRANCH  22  28
ATOM     28  O5  UNL     1      -8.393  53.818  -6.772  0.00  0.00    +0.000 OA
ATOM     29  C21 UNL     1      -7.969  54.935  -7.546  0.00  0.00    +0.000 C 
ENDBRANCH  22  28
ENDBRANCH  19  20
ENDBRANCH  16  18
ENDBRANCH   1  16
TORSDOF 10
ENDMDL
