MODEL 1
REMARK VINA RESULT:      15.8      0.000      0.000
REMARK  Name = .\curcumin.pdb
REMARK  12 active torsions:
REMARK  status: ('A' for Active; 'I' for Inactive)
REMARK    1  A    between atoms: C1_1  and  O1_2
REMARK    2  A    between atoms: O1_2  and  C2_3
REMARK    3  A    between atoms: C4_5  and  O6_27
REMARK    4  A    between atoms: C7_8  and  C8_9
REMARK    5  A    between atoms: C9_10  and  C10_11
REMARK    6  A    between atoms: C10_11  and  C11_13
REMARK    7  A    between atoms: C11_13  and  C12_14
REMARK    8  A    between atoms: C12_14  and  C13_16
REMARK    9  A    between atoms: C14_17  and  C15_18
REMARK   10  A    between atoms: C17_20  and  O5_25
REMARK   11  A    between atoms: C18_21  and  O4_24
REMARK   12  A    between atoms: O5_25  and  C21_26
REMARK                            x       y       z     vdW  Elec       q    Type
REMARK                         _______ _______ _______ _____ _____    ______ ____
ROOT
ATOM      1  C11 UNL     1     -18.795  77.789  48.354  0.00  0.00    +0.000 C 
ENDROOT
BRANCH   1   2
ATOM      2  C10 UNL     1     -18.404  78.348  47.014  0.00  0.00    +0.000 C 
ATOM      3  O2  UNL     1     -18.810  77.780  45.965  0.00  0.00    +0.000 OA
BRANCH   2   5
ATOM      4  C8  UNL     1     -16.307  79.559  46.545  0.00  0.00    +0.000 C 
ATOM      5  C9  UNL     1     -17.586  79.575  46.938  0.00  0.00    +0.000 C 
BRANCH   4  11
ATOM      6  C2  UNL     1     -16.037  82.083  46.577  0.00  0.00    +0.000 A 
ATOM      7  C3  UNL     1     -15.196  83.206  46.442  0.00  0.00    +0.000 A 
ATOM      8  C4  UNL     1     -13.826  83.045  46.196  0.00  0.00    +0.000 A 
ATOM      9  C5  UNL     1     -13.286  81.763  46.088  0.00  0.00    +0.000 A 
ATOM     10  C6  UNL     1     -14.108  80.643  46.211  0.00  0.00    +0.000 A 
ATOM     11  C7  UNL     1     -15.488  80.787  46.430  0.00  0.00    +0.000 A 
BRANCH   6  13
ATOM     12  C1  UNL     1     -18.396  82.678  45.975  0.00  0.00    +0.000 C 
ATOM     13  O1  UNL     1     -17.401  82.222  46.885  0.00  0.00    +0.000 OA
ENDBRANCH   6  13
BRANCH   8  14
ATOM     14  O6  UNL     1     -12.993  84.154  46.065  0.00  0.00    +0.000 OA
ATOM     15  H20 UNL     1     -11.987  84.077  46.161  0.00  0.00    +0.000 HD
ENDBRANCH   8  14
ENDBRANCH   4  11
ENDBRANCH   2   5
ENDBRANCH   1   2
BRANCH   1  16
ATOM     16  C12 UNL     1     -17.982  78.375  49.484  0.00  0.00    +0.000 C 
ATOM     17  O3  UNL     1     -18.488  78.485  50.634  0.00  0.00    +0.000 OA
BRANCH  16  18
ATOM     18  C13 UNL     1     -16.589  78.835  49.291  0.00  0.00    +0.000 C 
ATOM     19  C14 UNL     1     -16.173  80.076  49.587  0.00  0.00    +0.000 C 
BRANCH  19  20
ATOM     20  C15 UNL     1     -14.774  80.535  49.405  0.00  0.00    +0.000 A 
ATOM     21  C16 UNL     1     -13.764  79.697  48.890  0.00  0.00    +0.000 A 
ATOM     22  C17 UNL     1     -12.449  80.177  48.724  0.00  0.00    +0.000 A 
ATOM     23  C18 UNL     1     -12.153  81.504  49.064  0.00  0.00    +0.000 A 
ATOM     24  C19 UNL     1     -13.157  82.343  49.558  0.00  0.00    +0.000 A 
ATOM     25  C20 UNL     1     -14.459  81.865  49.721  0.00  0.00    +0.000 A 
BRANCH  23  26
ATOM     26  O4  UNL     1     -10.854  81.982  48.903  0.00  0.00    +0.000 OA
ATOM     27  H16 UNL     1     -10.281  82.243  49.699  0.00  0.00    +0.000 HD
ENDBRANCH  23  26
BRANCH  22  28
ATOM     28  O5  UNL     1     -11.415  79.370  48.221  0.00  0.00    +0.000 OA
ATOM     29  C21 UNL     1     -11.467  77.950  48.139  0.00  0.00    +0.000 C 
ENDBRANCH  22  28
ENDBRANCH  19  20
ENDBRANCH  16  18
ENDBRANCH   1  16
TORSDOF 10
ENDMDL
MODEL 2
REMARK VINA RESULT:      18.3      1.914      5.715
REMARK  Name = .\curcumin.pdb
REMARK  12 active torsions:
REMARK  status: ('A' for Active; 'I' for Inactive)
REMARK    1  A    between atoms: C1_1  and  O1_2
REMARK    2  A    between atoms: O1_2  and  C2_3
REMARK    3  A    between atoms: C4_5  and  O6_27
REMARK    4  A    between atoms: C7_8  and  C8_9
REMARK    5  A    between atoms: C9_10  and  C10_11
REMARK    6  A    between atoms: C10_11  and  C11_13
REMARK    7  A    between atoms: C11_13  and  C12_14
REMARK    8  A    between atoms: C12_14  and  C13_16
REMARK    9  A    between atoms: C14_17  and  C15_18
REMARK   10  A    between atoms: C17_20  and  O5_25
REMARK   11  A    between atoms: C18_21  and  O4_24
REMARK   12  A    between atoms: O5_25  and  C21_26
REMARK                            x       y       z     vdW  Elec       q    Type
REMARK                         _______ _______ _______ _____ _____    ______ ____
ROOT
ATOM      1  C11 UNL     1     -11.509  80.217  49.197  0.00  0.00    +0.000 C 
ENDROOT
BRANCH   1   2
ATOM      2  C10 UNL     1     -11.707  78.845  48.616  0.00  0.00    +0.000 C 
ATOM      3  O2  UNL     1     -10.775  78.001  48.695  0.00  0.00    +0.000 OA
BRANCH   2   5
ATOM      4  C8  UNL     1     -13.691  79.344  47.238  0.00  0.00    +0.000 C 
ATOM      5  C9  UNL     1     -12.998  78.486  47.997  0.00  0.00    +0.000 C 
BRANCH   4  11
ATOM      6  C2  UNL     1     -16.168  78.793  47.309  0.00  0.00    +0.000 A 
ATOM      7  C3  UNL     1     -17.344  78.439  46.616  0.00  0.00    +0.000 A 
ATOM      8  C4  UNL     1     -17.337  78.307  45.222  0.00  0.00    +0.000 A 
ATOM      9  C5  UNL     1     -16.158  78.533  44.509  0.00  0.00    +0.000 A 
ATOM     10  C6  UNL     1     -14.986  78.874  45.183  0.00  0.00    +0.000 A 
ATOM     11  C7  UNL     1     -14.969  78.984  46.583  0.00  0.00    +0.000 A 
BRANCH   6  13
ATOM     12  C1  UNL     1     -17.337  79.013  49.517  0.00  0.00    +0.000 C 
ATOM     13  O1  UNL     1     -16.170  78.990  48.701  0.00  0.00    +0.000 OA
ENDBRANCH   6  13
BRANCH   8  14
ATOM     14  O6  UNL     1     -18.499  77.960  44.536  0.00  0.00    +0.000 OA
ATOM     15  H20 UNL     1     -18.717  76.996  44.314  0.00  0.00    +0.000 HD
ENDBRANCH   8  14
ENDBRANCH   4  11
ENDBRANCH   2   5
ENDBRANCH   1   2
BRANCH   1  16
ATOM     16  C12 UNL     1     -12.818  80.921  49.473  0.00  0.00    +0.000 C 
ATOM     17  O3  UNL     1     -13.237  81.030  50.657  0.00  0.00    +0.000 OA
BRANCH  16  18
ATOM     18  C13 UNL     1     -13.640  81.498  48.388  0.00  0.00    +0.000 C 
ATOM     19  C14 UNL     1     -14.965  81.692  48.488  0.00  0.00    +0.000 C 
BRANCH  19  20
ATOM     20  C15 UNL     1     -15.790  82.282  47.406  0.00  0.00    +0.000 A 
ATOM     21  C16 UNL     1     -16.920  81.627  46.873  0.00  0.00    +0.000 A 
ATOM     22  C17 UNL     1     -17.683  82.227  45.852  0.00  0.00    +0.000 A 
ATOM     23  C18 UNL     1     -17.317  83.493  45.375  0.00  0.00    +0.000 A 
ATOM     24  C19 UNL     1     -16.208  84.154  45.914  0.00  0.00    +0.000 A 
ATOM     25  C20 UNL     1     -15.454  83.556  46.925  0.00  0.00    +0.000 A 
BRANCH  23  26
ATOM     26  O4  UNL     1     -18.068  84.091  44.363  0.00  0.00    +0.000 OA
ATOM     27  H16 UNL     1     -18.286  83.600  43.503  0.00  0.00    +0.000 HD
ENDBRANCH  23  26
BRANCH  22  28
ATOM     28  O5  UNL     1     -18.809  81.603  45.293  0.00  0.00    +0.000 OA
ATOM     29  C21 UNL     1     -18.768  80.410  44.517  0.00  0.00    +0.000 C 
ENDBRANCH  22  28
ENDBRANCH  19  20
ENDBRANCH  16  18
ENDBRANCH   1  16
TORSDOF 10
ENDMDL
