MODEL 1
REMARK VINA RESULT:      -5.4      0.000      0.000
REMARK  Name = .\curcumin.pdb
REMARK  12 active torsions:
REMARK  status: ('A' for Active; 'I' for Inactive)
REMARK    1  A    between atoms: C1_1  and  O1_2
REMARK    2  A    between atoms: O1_2  and  C2_3
REMARK    3  A    between atoms: C4_5  and  O6_27
REMARK    4  A    between atoms: C7_8  and  C8_9
REMARK    5  A    between atoms: C9_10  and  C10_11
REMARK    6  A    between atoms: C10_11  and  C11_13
REMARK    7  A    between atoms: C11_13  and  C12_14
REMARK    8  A    between atoms: C12_14  and  C13_16
REMARK    9  A    between atoms: C14_17  and  C15_18
REMARK   10  A    between atoms: C17_20  and  O5_25
REMARK   11  A    between atoms: C18_21  and  O4_24
REMARK   12  A    between atoms: O5_25  and  C21_26
REMARK                            x       y       z     vdW  Elec       q    Type
REMARK                         _______ _______ _______ _____ _____    ______ ____
ROOT
ATOM      1  C11 UNL     1       4.972  36.659  42.883  0.00  0.00    +0.000 C 
ENDROOT
BRANCH   1   2
ATOM      2  C10 UNL     1       5.533  35.336  42.442  0.00  0.00    +0.000 C 
ATOM      3  O2  UNL     1       6.491  34.827  43.083  0.00  0.00    +0.000 OA
BRANCH   2   5
ATOM      4  C8  UNL     1       5.455  34.694  40.062  0.00  0.00    +0.000 C 
ATOM      5  C9  UNL     1       4.934  34.628  41.293  0.00  0.00    +0.000 C 
BRANCH   4  11
ATOM      6  C2  UNL     1       3.847  34.491  38.108  0.00  0.00    +0.000 A 
ATOM      7  C3  UNL     1       3.345  33.727  37.034  0.00  0.00    +0.000 A 
ATOM      8  C4  UNL     1       3.887  32.469  36.741  0.00  0.00    +0.000 A 
ATOM      9  C5  UNL     1       4.936  31.968  37.514  0.00  0.00    +0.000 A 
ATOM     10  C6  UNL     1       5.434  32.709  38.585  0.00  0.00    +0.000 A 
ATOM     11  C7  UNL     1       4.884  33.959  38.910  0.00  0.00    +0.000 A 
BRANCH   6  13
ATOM     12  C1  UNL     1       2.056  36.067  38.880  0.00  0.00    +0.000 C 
ATOM     13  O1  UNL     1       3.358  35.781  38.379  0.00  0.00    +0.000 OA
ENDBRANCH   6  13
BRANCH   8  14
ATOM     14  O6  UNL     1       3.395  31.714  35.678  0.00  0.00    +0.000 OA
ATOM     15  H20 UNL     1       2.616  32.034  35.116  0.00  0.00    +0.000 HD
ENDBRANCH   8  14
ENDBRANCH   4  11
ENDBRANCH   2   5
ENDBRANCH   1   2
BRANCH   1  16
ATOM     16  C12 UNL     1       5.250  37.764  41.889  0.00  0.00    +0.000 C 
ATOM     17  O3  UNL     1       6.409  37.911  41.418  0.00  0.00    +0.000 OA
BRANCH  16  18
ATOM     18  C13 UNL     1       4.193  38.696  41.440  0.00  0.00    +0.000 C 
ATOM     19  C14 UNL     1       2.881  38.451  41.586  0.00  0.00    +0.000 C 
BRANCH  19  20
ATOM     20  C15 UNL     1       1.820  39.390  41.147  0.00  0.00    +0.000 A 
ATOM     21  C16 UNL     1       1.984  40.258  40.048  0.00  0.00    +0.000 A 
ATOM     22  C17 UNL     1       0.946  41.127  39.658  0.00  0.00    +0.000 A 
ATOM     23  C18 UNL     1      -0.264  41.115  40.365  0.00  0.00    +0.000 A 
ATOM     24  C19 UNL     1      -0.437  40.242  41.445  0.00  0.00    +0.000 A 
ATOM     25  C20 UNL     1       0.594  39.382  41.829  0.00  0.00    +0.000 A 
BRANCH  23  26
ATOM     26  O4  UNL     1      -1.293  41.974  39.985  0.00  0.00    +0.000 OA
ATOM     27  H16 UNL     1      -1.544  42.782  40.543  0.00  0.00    +0.000 HD
ENDBRANCH  23  26
BRANCH  22  28
ATOM     28  O5  UNL     1       1.076  42.010  38.574  0.00  0.00    +0.000 OA
ATOM     29  C21 UNL     1       0.609  41.744  37.255  0.00  0.00    +0.000 C 
ENDBRANCH  22  28
ENDBRANCH  19  20
ENDBRANCH  16  18
ENDBRANCH   1  16
TORSDOF 10
ENDMDL
MODEL 2
REMARK VINA RESULT:      -5.4      1.556      2.003
REMARK  Name = .\curcumin.pdb
REMARK  12 active torsions:
REMARK  status: ('A' for Active; 'I' for Inactive)
REMARK    1  A    between atoms: C1_1  and  O1_2
REMARK    2  A    between atoms: O1_2  and  C2_3
REMARK    3  A    between atoms: C4_5  and  O6_27
REMARK    4  A    between atoms: C7_8  and  C8_9
REMARK    5  A    between atoms: C9_10  and  C10_11
REMARK    6  A    between atoms: C10_11  and  C11_13
REMARK    7  A    between atoms: C11_13  and  C12_14
REMARK    8  A    between atoms: C12_14  and  C13_16
REMARK    9  A    between atoms: C14_17  and  C15_18
REMARK   10  A    between atoms: C17_20  and  O5_25
REMARK   11  A    between atoms: C18_21  and  O4_24
REMARK   12  A    between atoms: O5_25  and  C21_26
REMARK                            x       y       z     vdW  Elec       q    Type
REMARK                         _______ _______ _______ _____ _____    ______ ____
ROOT
ATOM      1  C11 UNL     1       6.391  36.258  42.095  0.00  0.00    +0.000 C 
ENDROOT
BRANCH   1   2
ATOM      2  C10 UNL     1       5.241  35.309  42.283  0.00  0.00    +0.000 C 
ATOM      3  O2  UNL     1       4.685  35.229  43.412  0.00  0.00    +0.000 OA
BRANCH   2   5
ATOM      4  C8  UNL     1       5.262  34.631  39.912  0.00  0.00    +0.000 C 
ATOM      5  C9  UNL     1       4.749  34.511  41.143  0.00  0.00    +0.000 C 
BRANCH   4  11
ATOM      6  C2  UNL     1       3.817  34.262  37.858  0.00  0.00    +0.000 A 
ATOM      7  C3  UNL     1       3.420  33.420  36.799  0.00  0.00    +0.000 A 
ATOM      8  C4  UNL     1       4.014  32.162  36.629  0.00  0.00    +0.000 A 
ATOM      9  C5  UNL     1       5.011  31.740  37.509  0.00  0.00    +0.000 A 
ATOM     10  C6  UNL     1       5.406  32.559  38.567  0.00  0.00    +0.000 A 
ATOM     11  C7  UNL     1       4.802  33.811  38.768  0.00  0.00    +0.000 A 
BRANCH   6  13
ATOM     12  C1  UNL     1       3.410  36.604  37.060  0.00  0.00    +0.000 C 
ATOM     13  O1  UNL     1       3.277  35.551  38.009  0.00  0.00    +0.000 OA
ENDBRANCH   6  13
BRANCH   8  14
ATOM     14  O6  UNL     1       3.625  31.330  35.581  0.00  0.00    +0.000 OA
ATOM     15  H20 UNL     1       3.613  30.322  35.680  0.00  0.00    +0.000 HD
ENDBRANCH   8  14
ENDBRANCH   4  11
ENDBRANCH   2   5
ENDBRANCH   1   2
BRANCH   1  16
ATOM     16  C12 UNL     1       5.939  37.629  41.646  0.00  0.00    +0.000 C 
ATOM     17  O3  UNL     1       6.780  38.453  41.195  0.00  0.00    +0.000 OA
BRANCH  16  18
ATOM     18  C13 UNL     1       4.523  38.049  41.716  0.00  0.00    +0.000 C 
ATOM     19  C14 UNL     1       3.784  38.338  40.633  0.00  0.00    +0.000 C 
BRANCH  19  20
ATOM     20  C15 UNL     1       2.360  38.748  40.700  0.00  0.00    +0.000 A 
ATOM     21  C16 UNL     1       1.852  39.553  41.740  0.00  0.00    +0.000 A 
ATOM     22  C17 UNL     1       0.494  39.929  41.760  0.00  0.00    +0.000 A 
ATOM     23  C18 UNL     1      -0.352  39.504  40.727  0.00  0.00    +0.000 A 
ATOM     24  C19 UNL     1       0.152  38.720  39.684  0.00  0.00    +0.000 A 
ATOM     25  C20 UNL     1       1.498  38.350  39.667  0.00  0.00    +0.000 A 
BRANCH  23  26
ATOM     26  O4  UNL     1      -1.697  39.871  40.743  0.00  0.00    +0.000 OA
ATOM     27  H16 UNL     1      -2.436  39.177  40.767  0.00  0.00    +0.000 HD
ENDBRANCH  23  26
BRANCH  22  28
ATOM     28  O5  UNL     1      -0.049  40.724  42.783  0.00  0.00    +0.000 OA
ATOM     29  C21 UNL     1       0.714  41.564  43.643  0.00  0.00    +0.000 C 
ENDBRANCH  22  28
ENDBRANCH  19  20
ENDBRANCH  16  18
ENDBRANCH   1  16
TORSDOF 10
ENDMDL
MODEL 3
REMARK VINA RESULT:      -5.3      2.303      5.685
REMARK  Name = .\curcumin.pdb
REMARK  12 active torsions:
REMARK  status: ('A' for Active; 'I' for Inactive)
REMARK    1  A    between atoms: C1_1  and  O1_2
REMARK    2  A    between atoms: O1_2  and  C2_3
REMARK    3  A    between atoms: C4_5  and  O6_27
REMARK    4  A    between atoms: C7_8  and  C8_9
REMARK    5  A    between atoms: C9_10  and  C10_11
REMARK    6  A    between atoms: C10_11  and  C11_13
REMARK    7  A    between atoms: C11_13  and  C12_14
REMARK    8  A    between atoms: C12_14  and  C13_16
REMARK    9  A    between atoms: C14_17  and  C15_18
REMARK   10  A    between atoms: C17_20  and  O5_25
REMARK   11  A    between atoms: C18_21  and  O4_24
REMARK   12  A    between atoms: O5_25  and  C21_26
REMARK                            x       y       z     vdW  Elec       q    Type
REMARK                         _______ _______ _______ _____ _____    ______ ____
ROOT
ATOM      1  C11 UNL     1       2.685  34.619  39.089  0.00  0.00    +0.000 C 
ENDROOT
BRANCH   1   2
ATOM      2  C10 UNL     1       4.157  34.862  39.269  0.00  0.00    +0.000 C 
ATOM      3  O2  UNL     1       4.982  34.047  38.775  0.00  0.00    +0.000 OA
BRANCH   2   5
ATOM      4  C8  UNL     1       4.286  36.324  41.251  0.00  0.00    +0.000 C 
ATOM      5  C9  UNL     1       4.623  36.068  39.981  0.00  0.00    +0.000 C 
BRANCH   4  11
ATOM      6  C2  UNL     1       5.316  37.425  43.294  0.00  0.00    +0.000 A 
ATOM      7  C3  UNL     1       5.753  38.602  43.937  0.00  0.00    +0.000 A 
ATOM      8  C4  UNL     1       5.685  39.838  43.282  0.00  0.00    +0.000 A 
ATOM      9  C5  UNL     1       5.187  39.908  41.980  0.00  0.00    +0.000 A 
ATOM     10  C6  UNL     1       4.743  38.754  41.336  0.00  0.00    +0.000 A 
ATOM     11  C7  UNL     1       4.777  37.511  41.988  0.00  0.00    +0.000 A 
BRANCH   6  13
ATOM     12  C1  UNL     1       6.609  35.366  43.904  0.00  0.00    +0.000 C 
ATOM     13  O1  UNL     1       5.433  36.168  43.910  0.00  0.00    +0.000 OA
ENDBRANCH   6  13
BRANCH   8  14
ATOM     14  O6  UNL     1       6.119  41.001  43.915  0.00  0.00    +0.000 OA
ATOM     15  H20 UNL     1       7.043  41.069  44.326  0.00  0.00    +0.000 HD
ENDBRANCH   8  14
ENDBRANCH   4  11
ENDBRANCH   2   5
ENDBRANCH   1   2
BRANCH   1  16
ATOM     16  C12 UNL     1       1.970  35.811  38.495  0.00  0.00    +0.000 C 
ATOM     17  O3  UNL     1       2.044  36.037  37.257  0.00  0.00    +0.000 OA
BRANCH  16  18
ATOM     18  C13 UNL     1       1.173  36.740  39.325  0.00  0.00    +0.000 C 
ATOM     19  C14 UNL     1       1.536  38.009  39.568  0.00  0.00    +0.000 C 
BRANCH  19  20
ATOM     20  C15 UNL     1       0.732  38.947  40.390  0.00  0.00    +0.000 A 
ATOM     21  C16 UNL     1       1.154  39.393  41.659  0.00  0.00    +0.000 A 
ATOM     22  C17 UNL     1       0.365  40.293  42.403  0.00  0.00    +0.000 A 
ATOM     23  C18 UNL     1      -0.844  40.754  41.865  0.00  0.00    +0.000 A 
ATOM     24  C19 UNL     1      -1.257  40.328  40.598  0.00  0.00    +0.000 A 
ATOM     25  C20 UNL     1      -0.472  39.437  39.864  0.00  0.00    +0.000 A 
BRANCH  23  26
ATOM     26  O4  UNL     1      -1.629  41.642  42.598  0.00  0.00    +0.000 OA
ATOM     27  H16 UNL     1      -1.723  42.616  42.328  0.00  0.00    +0.000 HD
ENDBRANCH  23  26
BRANCH  22  28
ATOM     28  O5  UNL     1       0.749  40.753  43.673  0.00  0.00    +0.000 OA
ATOM     29  C21 UNL     1       2.097  40.860  44.119  0.00  0.00    +0.000 C 
ENDBRANCH  22  28
ENDBRANCH  19  20
ENDBRANCH  16  18
ENDBRANCH   1  16
TORSDOF 10
ENDMDL
MODEL 4
REMARK VINA RESULT:      -5.1      1.642      2.776
REMARK  Name = .\curcumin.pdb
REMARK  12 active torsions:
REMARK  status: ('A' for Active; 'I' for Inactive)
REMARK    1  A    between atoms: C1_1  and  O1_2
REMARK    2  A    between atoms: O1_2  and  C2_3
REMARK    3  A    between atoms: C4_5  and  O6_27
REMARK    4  A    between atoms: C7_8  and  C8_9
REMARK    5  A    between atoms: C9_10  and  C10_11
REMARK    6  A    between atoms: C10_11  and  C11_13
REMARK    7  A    between atoms: C11_13  and  C12_14
REMARK    8  A    between atoms: C12_14  and  C13_16
REMARK    9  A    between atoms: C14_17  and  C15_18
REMARK   10  A    between atoms: C17_20  and  O5_25
REMARK   11  A    between atoms: C18_21  and  O4_24
REMARK   12  A    between atoms: O5_25  and  C21_26
REMARK                            x       y       z     vdW  Elec       q    Type
REMARK                         _______ _______ _______ _____ _____    ______ ____
ROOT
ATOM      1  C11 UNL     1       5.269  37.852  42.157  0.00  0.00    +0.000 C 
ENDROOT
BRANCH   1   2
ATOM      2  C10 UNL     1       4.081  36.931  42.185  0.00  0.00    +0.000 C 
ATOM      3  O2  UNL     1       3.304  36.956  43.177  0.00  0.00    +0.000 OA
BRANCH   2   5
ATOM      4  C8  UNL     1       4.795  35.447  40.349  0.00  0.00    +0.000 C 
ATOM      5  C9  UNL     1       3.813  36.038  41.040  0.00  0.00    +0.000 C 
BRANCH   4  11
ATOM      6  C2  UNL     1       5.293  33.342  39.020  0.00  0.00    +0.000 A 
ATOM      7  C3  UNL     1       4.997  32.515  37.917  0.00  0.00    +0.000 A 
ATOM      8  C4  UNL     1       3.948  32.837  37.047  0.00  0.00    +0.000 A 
ATOM      9  C5  UNL     1       3.183  33.982  37.275  0.00  0.00    +0.000 A 
ATOM     10  C6  UNL     1       3.472  34.814  38.357  0.00  0.00    +0.000 A 
ATOM     11  C7  UNL     1       4.538  34.521  39.222  0.00  0.00    +0.000 A 
BRANCH   6  13
ATOM     12  C1  UNL     1       6.506  31.702  40.479  0.00  0.00    +0.000 C 
ATOM     13  O1  UNL     1       6.302  33.003  39.938  0.00  0.00    +0.000 OA
ENDBRANCH   6  13
BRANCH   8  14
ATOM     14  O6  UNL     1       3.652  32.019  35.959  0.00  0.00    +0.000 OA
ATOM     15  H20 UNL     1       2.874  32.220  35.340  0.00  0.00    +0.000 HD
ENDBRANCH   8  14
ENDBRANCH   4  11
ENDBRANCH   2   5
ENDBRANCH   1   2
BRANCH   1  16
ATOM     16  C12 UNL     1       5.125  38.947  41.125  0.00  0.00    +0.000 C 
ATOM     17  O3  UNL     1       6.107  39.265  40.401  0.00  0.00    +0.000 OA
BRANCH  16  18
ATOM     18  C13 UNL     1       3.853  39.676  40.929  0.00  0.00    +0.000 C 
ATOM     19  C14 UNL     1       3.038  39.471  39.882  0.00  0.00    +0.000 C 
BRANCH  19  20
ATOM     20  C15 UNL     1       1.756  40.191  39.689  0.00  0.00    +0.000 A 
ATOM     21  C16 UNL     1       0.677  40.070  40.590  0.00  0.00    +0.000 A 
ATOM     22  C17 UNL     1      -0.521  40.780  40.375  0.00  0.00    +0.000 A 
ATOM     23  C18 UNL     1      -0.630  41.623  39.260  0.00  0.00    +0.000 A 
ATOM     24  C19 UNL     1       0.445  41.760  38.375  0.00  0.00    +0.000 A 
ATOM     25  C20 UNL     1       1.630  41.055  38.591  0.00  0.00    +0.000 A 
BRANCH  23  26
ATOM     26  O4  UNL     1      -1.813  42.326  39.042  0.00  0.00    +0.000 OA
ATOM     27  H16 UNL     1      -2.549  41.958  38.448  0.00  0.00    +0.000 HD
ENDBRANCH  23  26
BRANCH  22  28
ATOM     28  O5  UNL     1      -1.618  40.679  41.245  0.00  0.00    +0.000 OA
ATOM     29  C21 UNL     1      -1.797  41.473  42.413  0.00  0.00    +0.000 C 
ENDBRANCH  22  28
ENDBRANCH  19  20
ENDBRANCH  16  18
ENDBRANCH   1  16
TORSDOF 10
ENDMDL
MODEL 5
REMARK VINA RESULT:      -4.8      2.961      8.789
REMARK  Name = .\curcumin.pdb
REMARK  12 active torsions:
REMARK  status: ('A' for Active; 'I' for Inactive)
REMARK    1  A    between atoms: C1_1  and  O1_2
REMARK    2  A    between atoms: O1_2  and  C2_3
REMARK    3  A    between atoms: C4_5  and  O6_27
REMARK    4  A    between atoms: C7_8  and  C8_9
REMARK    5  A    between atoms: C9_10  and  C10_11
REMARK    6  A    between atoms: C10_11  and  C11_13
REMARK    7  A    between atoms: C11_13  and  C12_14
REMARK    8  A    between atoms: C12_14  and  C13_16
REMARK    9  A    between atoms: C14_17  and  C15_18
REMARK   10  A    between atoms: C17_20  and  O5_25
REMARK   11  A    between atoms: C18_21  and  O4_24
REMARK   12  A    between atoms: O5_25  and  C21_26
REMARK                            x       y       z     vdW  Elec       q    Type
REMARK                         _______ _______ _______ _____ _____    ______ ____
ROOT
ATOM      1  C11 UNL     1      -0.189  39.898  39.643  0.00  0.00    +0.000 C 
ENDROOT
BRANCH   1   2
ATOM      2  C10 UNL     1       0.816  40.868  39.085  0.00  0.00    +0.000 C 
ATOM      3  O2  UNL     1       0.617  41.377  37.950  0.00  0.00    +0.000 OA
BRANCH   2   5
ATOM      4  C8  UNL     1       1.946  42.179  40.842  0.00  0.00    +0.000 C 
ATOM      5  C9  UNL     1       1.998  41.245  39.884  0.00  0.00    +0.000 C 
BRANCH   4  11
ATOM      6  C2  UNL     1       2.994  42.932  43.028  0.00  0.00    +0.000 A 
ATOM      7  C3  UNL     1       4.154  43.274  43.754  0.00  0.00    +0.000 A 
ATOM      8  C4  UNL     1       5.417  43.196  43.155  0.00  0.00    +0.000 A 
ATOM      9  C5  UNL     1       5.533  42.772  41.830  0.00  0.00    +0.000 A 
ATOM     10  C6  UNL     1       4.393  42.440  41.098  0.00  0.00    +0.000 A 
ATOM     11  C7  UNL     1       3.117  42.540  41.674  0.00  0.00    +0.000 A 
BRANCH   6  13
ATOM     12  C1  UNL     1       1.046  41.794  44.121  0.00  0.00    +0.000 C 
ATOM     13  O1  UNL     1       1.724  42.946  43.630  0.00  0.00    +0.000 OA
ENDBRANCH   6  13
BRANCH   8  14
ATOM     14  O6  UNL     1       6.565  43.529  43.871  0.00  0.00    +0.000 OA
ATOM     15  H20 UNL     1       7.120  44.343  43.637  0.00  0.00    +0.000 HD
ENDBRANCH   8  14
ENDBRANCH   4  11
ENDBRANCH   2   5
ENDBRANCH   1   2
BRANCH   1  16
ATOM     16  C12 UNL     1       0.461  38.778  40.422  0.00  0.00    +0.000 C 
ATOM     17  O3  UNL     1       0.500  38.826  41.681  0.00  0.00    +0.000 OA
BRANCH  16  18
ATOM     18  C13 UNL     1       1.065  37.606  39.752  0.00  0.00    +0.000 C 
ATOM     19  C14 UNL     1       2.389  37.419  39.641  0.00  0.00    +0.000 C 
BRANCH  19  20
ATOM     20  C15 UNL     1       2.997  36.238  38.981  0.00  0.00    +0.000 A 
ATOM     21  C16 UNL     1       4.109  35.558  39.520  0.00  0.00    +0.000 A 
ATOM     22  C17 UNL     1       4.649  34.434  38.865  0.00  0.00    +0.000 A 
ATOM     23  C18 UNL     1       4.064  33.985  37.673  0.00  0.00    +0.000 A 
ATOM     24  C19 UNL     1       2.950  34.646  37.145  0.00  0.00    +0.000 A 
ATOM     25  C20 UNL     1       2.417  35.760  37.797  0.00  0.00    +0.000 A 
BRANCH  23  26
ATOM     26  O4  UNL     1       4.596  32.874  37.021  0.00  0.00    +0.000 OA
ATOM     27  H16 UNL     1       5.313  32.298  37.450  0.00  0.00    +0.000 HD
ENDBRANCH  23  26
BRANCH  22  28
ATOM     28  O5  UNL     1       5.759  33.736  39.368  0.00  0.00    +0.000 OA
ATOM     29  C21 UNL     1       6.620  34.219  40.394  0.00  0.00    +0.000 C 
ENDBRANCH  22  28
ENDBRANCH  19  20
ENDBRANCH  16  18
ENDBRANCH   1  16
TORSDOF 10
ENDMDL
MODEL 6
REMARK VINA RESULT:      -4.7      2.340      8.849
REMARK  Name = .\curcumin.pdb
REMARK  12 active torsions:
REMARK  status: ('A' for Active; 'I' for Inactive)
REMARK    1  A    between atoms: C1_1  and  O1_2
REMARK    2  A    between atoms: O1_2  and  C2_3
REMARK    3  A    between atoms: C4_5  and  O6_27
REMARK    4  A    between atoms: C7_8  and  C8_9
REMARK    5  A    between atoms: C9_10  and  C10_11
REMARK    6  A    between atoms: C10_11  and  C11_13
REMARK    7  A    between atoms: C11_13  and  C12_14
REMARK    8  A    between atoms: C12_14  and  C13_16
REMARK    9  A    between atoms: C14_17  and  C15_18
REMARK   10  A    between atoms: C17_20  and  O5_25
REMARK   11  A    between atoms: C18_21  and  O4_24
REMARK   12  A    between atoms: O5_25  and  C21_26
REMARK                            x       y       z     vdW  Elec       q    Type
REMARK                         _______ _______ _______ _____ _____    ______ ____
ROOT
ATOM      1  C11 UNL     1       3.360  37.628  37.373  0.00  0.00    +0.000 C 
ENDROOT
BRANCH   1   2
ATOM      2  C10 UNL     1       3.380  38.213  38.757  0.00  0.00    +0.000 C 
ATOM      3  O2  UNL     1       4.434  38.137  39.444  0.00  0.00    +0.000 OA
BRANCH   2   5
ATOM      4  C8  UNL     1       2.068  39.247  40.572  0.00  0.00    +0.000 C 
ATOM      5  C9  UNL     1       2.186  38.903  39.283  0.00  0.00    +0.000 C 
BRANCH   4  11
ATOM      6  C2  UNL     1       0.925  40.678  42.330  0.00  0.00    +0.000 A 
ATOM      7  C3  UNL     1      -0.240  41.334  42.779  0.00  0.00    +0.000 A 
ATOM      8  C4  UNL     1      -1.408  41.318  42.007  0.00  0.00    +0.000 A 
ATOM      9  C5  UNL     1      -1.421  40.651  40.781  0.00  0.00    +0.000 A 
ATOM     10  C6  UNL     1      -0.279  39.989  40.330  0.00  0.00    +0.000 A 
ATOM     11  C7  UNL     1       0.892  39.972  41.104  0.00  0.00    +0.000 A 
BRANCH   6  13
ATOM     12  C1  UNL     1       3.034  41.829  43.045  0.00  0.00    +0.000 C 
ATOM     13  O1  UNL     1       2.124  40.734  43.061  0.00  0.00    +0.000 OA
ENDBRANCH   6  13
BRANCH   8  14
ATOM     14  O6  UNL     1      -2.559  41.969  42.446  0.00  0.00    +0.000 OA
ATOM     15  H20 UNL     1      -2.602  42.979  42.520  0.00  0.00    +0.000 HD
ENDBRANCH   8  14
ENDBRANCH   4  11
ENDBRANCH   2   5
ENDBRANCH   1   2
BRANCH   1  16
ATOM     16  C12 UNL     1       3.038  36.151  37.375  0.00  0.00    +0.000 C 
ATOM     17  O3  UNL     1       2.013  35.728  36.776  0.00  0.00    +0.000 OA
BRANCH  16  18
ATOM     18  C13 UNL     1       3.895  35.164  38.067  0.00  0.00    +0.000 C 
ATOM     19  C14 UNL     1       3.511  34.492  39.163  0.00  0.00    +0.000 C 
BRANCH  19  20
ATOM     20  C15 UNL     1       4.364  33.492  39.851  0.00  0.00    +0.000 A 
ATOM     21  C16 UNL     1       4.772  33.641  41.193  0.00  0.00    +0.000 A 
ATOM     22  C17 UNL     1       5.574  32.662  41.812  0.00  0.00    +0.000 A 
ATOM     23  C18 UNL     1       5.957  31.526  41.086  0.00  0.00    +0.000 A 
ATOM     24  C19 UNL     1       5.539  31.366  39.761  0.00  0.00    +0.000 A 
ATOM     25  C20 UNL     1       4.744  32.338  39.150  0.00  0.00    +0.000 A 
BRANCH  23  26
ATOM     26  O4  UNL     1       6.752  30.556  41.694  0.00  0.00    +0.000 OA
ATOM     27  H16 UNL     1       6.553  29.566  41.593  0.00  0.00    +0.000 HD
ENDBRANCH  23  26
BRANCH  22  28
ATOM     28  O5  UNL     1       6.005  32.779  43.144  0.00  0.00    +0.000 OA
ATOM     29  C21 UNL     1       6.639  33.932  43.688  0.00  0.00    +0.000 C 
ENDBRANCH  22  28
ENDBRANCH  19  20
ENDBRANCH  16  18
ENDBRANCH   1  16
TORSDOF 10
ENDMDL
MODEL 7
REMARK VINA RESULT:      -4.4      2.280      5.364
REMARK  Name = .\curcumin.pdb
REMARK  12 active torsions:
REMARK  status: ('A' for Active; 'I' for Inactive)
REMARK    1  A    between atoms: C1_1  and  O1_2
REMARK    2  A    between atoms: O1_2  and  C2_3
REMARK    3  A    between atoms: C4_5  and  O6_27
REMARK    4  A    between atoms: C7_8  and  C8_9
REMARK    5  A    between atoms: C9_10  and  C10_11
REMARK    6  A    between atoms: C10_11  and  C11_13
REMARK    7  A    between atoms: C11_13  and  C12_14
REMARK    8  A    between atoms: C12_14  and  C13_16
REMARK    9  A    between atoms: C14_17  and  C15_18
REMARK   10  A    between atoms: C17_20  and  O5_25
REMARK   11  A    between atoms: C18_21  and  O4_24
REMARK   12  A    between atoms: O5_25  and  C21_26
REMARK                            x       y       z     vdW  Elec       q    Type
REMARK                         _______ _______ _______ _____ _____    ______ ____
ROOT
ATOM      1  C11 UNL     1       2.339  34.795  38.839  0.00  0.00    +0.000 C 
ENDROOT
BRANCH   1   2
ATOM      2  C10 UNL     1       3.809  34.599  39.084  0.00  0.00    +0.000 C 
ATOM      3  O2  UNL     1       4.401  33.627  38.543  0.00  0.00    +0.000 OA
BRANCH   2   5
ATOM      4  C8  UNL     1       4.042  36.753  40.263  0.00  0.00    +0.000 C 
ATOM      5  C9  UNL     1       4.552  35.563  39.919  0.00  0.00    +0.000 C 
BRANCH   4  11
ATOM      6  C2  UNL     1       4.756  39.107  40.888  0.00  0.00    +0.000 A 
ATOM      7  C3  UNL     1       5.477  39.959  41.750  0.00  0.00    +0.000 A 
ATOM      8  C4  UNL     1       6.165  39.439  42.853  0.00  0.00    +0.000 A 
ATOM      9  C5  UNL     1       6.136  38.067  43.107  0.00  0.00    +0.000 A 
ATOM     10  C6  UNL     1       5.435  37.211  42.256  0.00  0.00    +0.000 A 
ATOM     11  C7  UNL     1       4.762  37.713  41.130  0.00  0.00    +0.000 A 
BRANCH   6  13
ATOM     12  C1  UNL     1       3.158  40.756  39.882  0.00  0.00    +0.000 C 
ATOM     13  O1  UNL     1       4.009  39.617  39.812  0.00  0.00    +0.000 OA
ENDBRANCH   6  13
BRANCH   8  14
ATOM     14  O6  UNL     1       6.874  40.280  43.709  0.00  0.00    +0.000 OA
ATOM     15  H20 UNL     1       6.897  40.122  44.709  0.00  0.00    +0.000 HD
ENDBRANCH   8  14
ENDBRANCH   4  11
ENDBRANCH   2   5
ENDBRANCH   1   2
BRANCH   1  16
ATOM     16  C12 UNL     1       2.053  35.996  37.967  0.00  0.00    +0.000 C 
ATOM     17  O3  UNL     1       2.246  35.932  36.723  0.00  0.00    +0.000 OA
BRANCH  16  18
ATOM     18  C13 UNL     1       1.548  37.268  38.528  0.00  0.00    +0.000 C 
ATOM     19  C14 UNL     1       0.905  37.353  39.703  0.00  0.00    +0.000 C 
BRANCH  19  20
ATOM     20  C15 UNL     1       0.407  38.629  40.273  0.00  0.00    +0.000 A 
ATOM     21  C16 UNL     1       0.607  38.983  41.623  0.00  0.00    +0.000 A 
ATOM     22  C17 UNL     1       0.127  40.210  42.122  0.00  0.00    +0.000 A 
ATOM     23  C18 UNL     1      -0.544  41.088  41.260  0.00  0.00    +0.000 A 
ATOM     24  C19 UNL     1      -0.728  40.748  39.915  0.00  0.00    +0.000 A 
ATOM     25  C20 UNL     1      -0.250  39.532  39.424  0.00  0.00    +0.000 A 
BRANCH  23  26
ATOM     26  O4  UNL     1      -1.023  42.303  41.749  0.00  0.00    +0.000 OA
ATOM     27  H16 UNL     1      -2.013  42.461  41.901  0.00  0.00    +0.000 HD
ENDBRANCH  23  26
BRANCH  22  28
ATOM     28  O5  UNL     1       0.300  40.594  43.462  0.00  0.00    +0.000 OA
ATOM     29  C21 UNL     1       0.976  41.775  43.882  0.00  0.00    +0.000 C 
ENDBRANCH  22  28
ENDBRANCH  19  20
ENDBRANCH  16  18
ENDBRANCH   1  16
TORSDOF 10
ENDMDL
MODEL 8
REMARK VINA RESULT:      -4.1      2.546      4.882
REMARK  Name = .\curcumin.pdb
REMARK  12 active torsions:
REMARK  status: ('A' for Active; 'I' for Inactive)
REMARK    1  A    between atoms: C1_1  and  O1_2
REMARK    2  A    between atoms: O1_2  and  C2_3
REMARK    3  A    between atoms: C4_5  and  O6_27
REMARK    4  A    between atoms: C7_8  and  C8_9
REMARK    5  A    between atoms: C9_10  and  C10_11
REMARK    6  A    between atoms: C10_11  and  C11_13
REMARK    7  A    between atoms: C11_13  and  C12_14
REMARK    8  A    between atoms: C12_14  and  C13_16
REMARK    9  A    between atoms: C14_17  and  C15_18
REMARK   10  A    between atoms: C17_20  and  O5_25
REMARK   11  A    between atoms: C18_21  and  O4_24
REMARK   12  A    between atoms: O5_25  and  C21_26
REMARK                            x       y       z     vdW  Elec       q    Type
REMARK                         _______ _______ _______ _____ _____    ______ ____
ROOT
ATOM      1  C11 UNL     1       0.372  38.221  39.532  0.00  0.00    +0.000 C 
ENDROOT
BRANCH   1   2
ATOM      2  C10 UNL     1       1.186  37.203  40.280  0.00  0.00    +0.000 C 
ATOM      3  O2  UNL     1       1.257  37.271  41.536  0.00  0.00    +0.000 OA
BRANCH   2   5
ATOM      4  C8  UNL     1       3.147  35.805  39.747  0.00  0.00    +0.000 C 
ATOM      5  C9  UNL     1       1.860  36.115  39.545  0.00  0.00    +0.000 C 
BRANCH   4  11
ATOM      6  C2  UNL     1       4.999  34.081  39.540  0.00  0.00    +0.000 A 
ATOM      7  C3  UNL     1       5.594  33.034  38.807  0.00  0.00    +0.000 A 
ATOM      8  C4  UNL     1       5.014  32.579  37.616  0.00  0.00    +0.000 A 
ATOM      9  C5  UNL     1       3.834  33.162  37.151  0.00  0.00    +0.000 A 
ATOM     10  C6  UNL     1       3.240  34.205  37.862  0.00  0.00    +0.000 A 
ATOM     11  C7  UNL     1       3.823  34.692  39.042  0.00  0.00    +0.000 A 
BRANCH   6  13
ATOM     12  C1  UNL     1       6.187  33.665  41.708  0.00  0.00    +0.000 C 
ATOM     13  O1  UNL     1       5.532  34.510  40.767  0.00  0.00    +0.000 OA
ENDBRANCH   6  13
BRANCH   8  14
ATOM     14  O6  UNL     1       5.598  31.542  36.892  0.00  0.00    +0.000 OA
ATOM     15  H20 UNL     1       5.662  30.602  37.267  0.00  0.00    +0.000 HD
ENDBRANCH   8  14
ENDBRANCH   4  11
ENDBRANCH   2   5
ENDBRANCH   1   2
BRANCH   1  16
ATOM     16  C12 UNL     1       0.187  39.501  40.315  0.00  0.00    +0.000 C 
ATOM     17  O3  UNL     1      -0.967  39.981  40.475  0.00  0.00    +0.000 OA
BRANCH  16  18
ATOM     18  C13 UNL     1       1.330  40.225  40.913  0.00  0.00    +0.000 C 
ATOM     19  C14 UNL     1       2.365  40.690  40.196  0.00  0.00    +0.000 C 
BRANCH  19  20
ATOM     20  C15 UNL     1       3.507  41.427  40.791  0.00  0.00    +0.000 A 
ATOM     21  C16 UNL     1       4.653  40.774  41.289  0.00  0.00    +0.000 A 
ATOM     22  C17 UNL     1       5.720  41.513  41.836  0.00  0.00    +0.000 A 
ATOM     23  C18 UNL     1       5.641  42.912  41.874  0.00  0.00    +0.000 A 
ATOM     24  C19 UNL     1       4.513  43.565  41.364  0.00  0.00    +0.000 A 
ATOM     25  C20 UNL     1       3.457  42.829  40.821  0.00  0.00    +0.000 A 
BRANCH  23  26
ATOM     26  O4  UNL     1       6.693  43.647  42.416  0.00  0.00    +0.000 OA
ATOM     27  H16 UNL     1       7.579  43.744  41.932  0.00  0.00    +0.000 HD
ENDBRANCH  23  26
BRANCH  22  28
ATOM     28  O5  UNL     1       6.874  40.897  42.348  0.00  0.00    +0.000 OA
ATOM     29  C21 UNL     1       6.874  39.707  43.130  0.00  0.00    +0.000 C 
ENDBRANCH  22  28
ENDBRANCH  19  20
ENDBRANCH  16  18
ENDBRANCH   1  16
TORSDOF 10
ENDMDL
MODEL 9
REMARK VINA RESULT:      -4.1      3.026      6.863
REMARK  Name = .\curcumin.pdb
REMARK  12 active torsions:
REMARK  status: ('A' for Active; 'I' for Inactive)
REMARK    1  A    between atoms: C1_1  and  O1_2
REMARK    2  A    between atoms: O1_2  and  C2_3
REMARK    3  A    between atoms: C4_5  and  O6_27
REMARK    4  A    between atoms: C7_8  and  C8_9
REMARK    5  A    between atoms: C9_10  and  C10_11
REMARK    6  A    between atoms: C10_11  and  C11_13
REMARK    7  A    between atoms: C11_13  and  C12_14
REMARK    8  A    between atoms: C12_14  and  C13_16
REMARK    9  A    between atoms: C14_17  and  C15_18
REMARK   10  A    between atoms: C17_20  and  O5_25
REMARK   11  A    between atoms: C18_21  and  O4_24
REMARK   12  A    between atoms: O5_25  and  C21_26
REMARK                            x       y       z     vdW  Elec       q    Type
REMARK                         _______ _______ _______ _____ _____    ______ ____
ROOT
ATOM      1  C11 UNL     1       2.841  35.824  39.980  0.00  0.00    +0.000 C 
ENDROOT
BRANCH   1   2
ATOM      2  C10 UNL     1       1.946  36.543  40.951  0.00  0.00    +0.000 C 
ATOM      3  O2  UNL     1       2.005  36.251  42.176  0.00  0.00    +0.000 OA
BRANCH   2   5
ATOM      4  C8  UNL     1       1.238  38.898  40.763  0.00  0.00    +0.000 C 
ATOM      5  C9  UNL     1       1.041  37.606  40.471  0.00  0.00    +0.000 C 
BRANCH   4  11
ATOM      6  C2  UNL     1      -0.534  40.684  41.098  0.00  0.00    +0.000 A 
ATOM      7  C3  UNL     1      -1.351  41.691  40.542  0.00  0.00    +0.000 A 
ATOM      8  C4  UNL     1      -1.260  42.011  39.182  0.00  0.00    +0.000 A 
ATOM      9  C5  UNL     1      -0.352  41.333  38.368  0.00  0.00    +0.000 A 
ATOM     10  C6  UNL     1       0.455  40.328  38.902  0.00  0.00    +0.000 A 
ATOM     11  C7  UNL     1       0.358  39.976  40.258  0.00  0.00    +0.000 A 
BRANCH   6  13
ATOM     12  C1  UNL     1       0.020  41.197  43.488  0.00  0.00    +0.000 C 
ATOM     13  O1  UNL     1      -0.567  40.391  42.472  0.00  0.00    +0.000 OA
ENDBRANCH   6  13
BRANCH   8  14
ATOM     14  O6  UNL     1      -2.064  43.007  38.632  0.00  0.00    +0.000 OA
ATOM     15  H20 UNL     1      -2.204  43.895  39.100  0.00  0.00    +0.000 HD
ENDBRANCH   8  14
ENDBRANCH   4  11
ENDBRANCH   2   5
ENDBRANCH   1   2
BRANCH   1  16
ATOM     16  C12 UNL     1       3.712  36.771  39.187  0.00  0.00    +0.000 C 
ATOM     17  O3  UNL     1       3.900  36.574  37.957  0.00  0.00    +0.000 OA
BRANCH  16  18
ATOM     18  C13 UNL     1       4.364  37.943  39.811  0.00  0.00    +0.000 C 
ATOM     19  C14 UNL     1       4.188  39.202  39.381  0.00  0.00    +0.000 C 
BRANCH  19  20
ATOM     20  C15 UNL     1       4.831  40.381  40.012  0.00  0.00    +0.000 A 
ATOM     21  C16 UNL     1       4.098  41.350  40.727  0.00  0.00    +0.000 A 
ATOM     22  C17 UNL     1       4.749  42.449  41.321  0.00  0.00    +0.000 A 
ATOM     23  C18 UNL     1       6.141  42.568  41.207  0.00  0.00    +0.000 A 
ATOM     24  C19 UNL     1       6.874  41.598  40.514  0.00  0.00    +0.000 A 
ATOM     25  C20 UNL     1       6.225  40.510  39.927  0.00  0.00    +0.000 A 
BRANCH  23  26
ATOM     26  O4  UNL     1       6.790  43.654  41.791  0.00  0.00    +0.000 OA
ATOM     27  H16 UNL     1       6.297  44.514  42.007  0.00  0.00    +0.000 HD
ENDBRANCH  23  26
BRANCH  22  28
ATOM     28  O5  UNL     1       4.052  43.438  42.035  0.00  0.00    +0.000 OA
ATOM     29  C21 UNL     1       2.661  43.389  42.331  0.00  0.00    +0.000 C 
ENDBRANCH  22  28
ENDBRANCH  19  20
ENDBRANCH  16  18
ENDBRANCH   1  16
TORSDOF 10
ENDMDL
