MODEL 1
REMARK VINA RESULT:       2.2      0.000      0.000
REMARK  Name = .\curcumin.pdb
REMARK  12 active torsions:
REMARK  status: ('A' for Active; 'I' for Inactive)
REMARK    1  A    between atoms: C1_1  and  O1_2
REMARK    2  A    between atoms: O1_2  and  C2_3
REMARK    3  A    between atoms: C4_5  and  O6_27
REMARK    4  A    between atoms: C7_8  and  C8_9
REMARK    5  A    between atoms: C9_10  and  C10_11
REMARK    6  A    between atoms: C10_11  and  C11_13
REMARK    7  A    between atoms: C11_13  and  C12_14
REMARK    8  A    between atoms: C12_14  and  C13_16
REMARK    9  A    between atoms: C14_17  and  C15_18
REMARK   10  A    between atoms: C17_20  and  O5_25
REMARK   11  A    between atoms: C18_21  and  O4_24
REMARK   12  A    between atoms: O5_25  and  C21_26
REMARK                            x       y       z     vdW  Elec       q    Type
REMARK                         _______ _______ _______ _____ _____    ______ ____
ROOT
ATOM      1  C11 UNL     1     -29.068  52.124   3.029  0.00  0.00    +0.000 C 
ENDROOT
BRANCH   1   2
ATOM      2  C10 UNL     1     -28.775  52.821   4.328  0.00  0.00    +0.000 C 
ATOM      3  O2  UNL     1     -27.645  53.350   4.504  0.00  0.00    +0.000 OA
BRANCH   2   5
ATOM      4  C8  UNL     1     -29.532  53.142   6.654  0.00  0.00    +0.000 C 
ATOM      5  C9  UNL     1     -29.821  52.916   5.366  0.00  0.00    +0.000 C 
BRANCH   4  11
ATOM      6  C2  UNL     1     -30.289  53.141   9.077  0.00  0.00    +0.000 A 
ATOM      7  C3  UNL     1     -31.336  53.269  10.012  0.00  0.00    +0.000 A 
ATOM      8  C4  UNL     1     -32.639  53.557   9.587  0.00  0.00    +0.000 A 
ATOM      9  C5  UNL     1     -32.905  53.724   8.227  0.00  0.00    +0.000 A 
ATOM     10  C6  UNL     1     -31.880  53.591   7.290  0.00  0.00    +0.000 A 
ATOM     11  C7  UNL     1     -30.574  53.275   7.697  0.00  0.00    +0.000 A 
BRANCH   6  13
ATOM     12  C1  UNL     1     -28.523  51.766  10.206  0.00  0.00    +0.000 C 
ATOM     13  O1  UNL     1     -28.965  52.913   9.488  0.00  0.00    +0.000 OA
ENDBRANCH   6  13
BRANCH   8  14
ATOM     14  O6  UNL     1     -33.675  53.687  10.510  0.00  0.00    +0.000 OA
ATOM     15  H20 UNL     1     -34.469  54.292  10.336  0.00  0.00    +0.000 HD
ENDBRANCH   8  14
ENDBRANCH   4  11
ENDBRANCH   2   5
ENDBRANCH   1   2
BRANCH   1  16
ATOM     16  C12 UNL     1     -30.286  51.233   3.113  0.00  0.00    +0.000 C 
ATOM     17  O3  UNL     1     -31.106  51.195   2.157  0.00  0.00    +0.000 OA
BRANCH  16  18
ATOM     18  C13 UNL     1     -30.559  50.389   4.297  0.00  0.00    +0.000 C 
ATOM     19  C14 UNL     1     -31.270  50.809   5.355  0.00  0.00    +0.000 C 
BRANCH  19  20
ATOM     20  C15 UNL     1     -31.555  49.960   6.538  0.00  0.00    +0.000 A 
ATOM     21  C16 UNL     1     -30.541  49.513   7.410  0.00  0.00    +0.000 A 
ATOM     22  C17 UNL     1     -30.857  48.717   8.529  0.00  0.00    +0.000 A 
ATOM     23  C18 UNL     1     -32.194  48.379   8.778  0.00  0.00    +0.000 A 
ATOM     24  C19 UNL     1     -33.204  48.836   7.925  0.00  0.00    +0.000 A 
ATOM     25  C20 UNL     1     -32.888  49.626   6.818  0.00  0.00    +0.000 A 
BRANCH  23  26
ATOM     26  O4  UNL     1     -32.511  47.590   9.882  0.00  0.00    +0.000 OA
ATOM     27  H16 UNL     1     -32.387  46.583   9.869  0.00  0.00    +0.000 HD
ENDBRANCH  23  26
BRANCH  22  28
ATOM     28  O5  UNL     1     -29.874  48.247   9.416  0.00  0.00    +0.000 OA
ATOM     29  C21 UNL     1     -28.471  48.352   9.195  0.00  0.00    +0.000 C 
ENDBRANCH  22  28
ENDBRANCH  19  20
ENDBRANCH  16  18
ENDBRANCH   1  16
TORSDOF 10
ENDMDL
MODEL 2
REMARK VINA RESULT:       2.7      2.010      4.512
REMARK  Name = .\curcumin.pdb
REMARK  12 active torsions:
REMARK  status: ('A' for Active; 'I' for Inactive)
REMARK    1  A    between atoms: C1_1  and  O1_2
REMARK    2  A    between atoms: O1_2  and  C2_3
REMARK    3  A    between atoms: C4_5  and  O6_27
REMARK    4  A    between atoms: C7_8  and  C8_9
REMARK    5  A    between atoms: C9_10  and  C10_11
REMARK    6  A    between atoms: C10_11  and  C11_13
REMARK    7  A    between atoms: C11_13  and  C12_14
REMARK    8  A    between atoms: C12_14  and  C13_16
REMARK    9  A    between atoms: C14_17  and  C15_18
REMARK   10  A    between atoms: C17_20  and  O5_25
REMARK   11  A    between atoms: C18_21  and  O4_24
REMARK   12  A    between atoms: O5_25  and  C21_26
REMARK                            x       y       z     vdW  Elec       q    Type
REMARK                         _______ _______ _______ _____ _____    ______ ____
ROOT
ATOM      1  C11 UNL     1     -30.299  50.342   3.542  0.00  0.00    +0.000 C 
ENDROOT
BRANCH   1   2
ATOM      2  C10 UNL     1     -31.430  49.791   4.366  0.00  0.00    +0.000 C 
ATOM      3  O2  UNL     1     -31.815  48.607   4.172  0.00  0.00    +0.000 OA
BRANCH   2   5
ATOM      4  C8  UNL     1     -31.455  50.846   6.595  0.00  0.00    +0.000 C 
ATOM      5  C9  UNL     1     -32.049  50.623   5.416  0.00  0.00    +0.000 C 
BRANCH   4  11
ATOM      6  C2  UNL     1     -32.713  51.178   8.775  0.00  0.00    +0.000 A 
ATOM      7  C3  UNL     1     -33.265  52.062   9.725  0.00  0.00    +0.000 A 
ATOM      8  C4  UNL     1     -33.133  53.447   9.570  0.00  0.00    +0.000 A 
ATOM      9  C5  UNL     1     -32.444  53.960   8.469  0.00  0.00    +0.000 A 
ATOM     10  C6  UNL     1     -31.902  53.098   7.517  0.00  0.00    +0.000 A 
ATOM     11  C7  UNL     1     -32.049  51.707   7.643  0.00  0.00    +0.000 A 
BRANCH   6  13
ATOM     12  C1  UNL     1     -31.848  49.009   9.689  0.00  0.00    +0.000 C 
ATOM     13  O1  UNL     1     -32.782  49.785   8.945  0.00  0.00    +0.000 OA
ENDBRANCH   6  13
BRANCH   8  14
ATOM     14  O6  UNL     1     -33.675  54.322  10.509  0.00  0.00    +0.000 OA
ATOM     15  H20 UNL     1     -34.562  54.786  10.353  0.00  0.00    +0.000 HD
ENDBRANCH   8  14
ENDBRANCH   4  11
ENDBRANCH   2   5
ENDBRANCH   1   2
BRANCH   1  16
ATOM     16  C12 UNL     1     -29.871  51.719   3.996  0.00  0.00    +0.000 C 
ATOM     17  O3  UNL     1     -30.044  52.713   3.240  0.00  0.00    +0.000 OA
BRANCH  16  18
ATOM     18  C13 UNL     1     -29.246  51.949   5.316  0.00  0.00    +0.000 C 
ATOM     19  C14 UNL     1     -28.159  52.714   5.495  0.00  0.00    +0.000 C 
BRANCH  19  20
ATOM     20  C15 UNL     1     -27.537  52.957   6.820  0.00  0.00    +0.000 A 
ATOM     21  C16 UNL     1     -27.923  52.250   7.978  0.00  0.00    +0.000 A 
ATOM     22  C17 UNL     1     -27.299  52.503   9.215  0.00  0.00    +0.000 A 
ATOM     23  C18 UNL     1     -26.278  53.460   9.287  0.00  0.00    +0.000 A 
ATOM     24  C19 UNL     1     -25.880  54.150   8.137  0.00  0.00    +0.000 A 
ATOM     25  C20 UNL     1     -26.500  53.896   6.912  0.00  0.00    +0.000 A 
BRANCH  23  26
ATOM     26  O4  UNL     1     -25.659  53.716  10.510  0.00  0.00    +0.000 OA
ATOM     27  H16 UNL     1     -25.274  52.969  11.077  0.00  0.00    +0.000 HD
ENDBRANCH  23  26
BRANCH  22  28
ATOM     28  O5  UNL     1     -27.662  51.825  10.390  0.00  0.00    +0.000 OA
ATOM     29  C21 UNL     1     -28.607  50.761  10.449  0.00  0.00    +0.000 C 
ENDBRANCH  22  28
ENDBRANCH  19  20
ENDBRANCH  16  18
ENDBRANCH   1  16
TORSDOF 10
ENDMDL
MODEL 3
REMARK VINA RESULT:       3.6      1.923      5.397
REMARK  Name = .\curcumin.pdb
REMARK  12 active torsions:
REMARK  status: ('A' for Active; 'I' for Inactive)
REMARK    1  A    between atoms: C1_1  and  O1_2
REMARK    2  A    between atoms: O1_2  and  C2_3
REMARK    3  A    between atoms: C4_5  and  O6_27
REMARK    4  A    between atoms: C7_8  and  C8_9
REMARK    5  A    between atoms: C9_10  and  C10_11
REMARK    6  A    between atoms: C10_11  and  C11_13
REMARK    7  A    between atoms: C11_13  and  C12_14
REMARK    8  A    between atoms: C12_14  and  C13_16
REMARK    9  A    between atoms: C14_17  and  C15_18
REMARK   10  A    between atoms: C17_20  and  O5_25
REMARK   11  A    between atoms: C18_21  and  O4_24
REMARK   12  A    between atoms: O5_25  and  C21_26
REMARK                            x       y       z     vdW  Elec       q    Type
REMARK                         _______ _______ _______ _____ _____    ______ ____
ROOT
ATOM      1  C11 UNL     1     -26.774  53.037   9.581  0.00  0.00    +0.000 C 
ENDROOT
BRANCH   1   2
ATOM      2  C10 UNL     1     -26.716  51.671  10.203  0.00  0.00    +0.000 C 
ATOM      3  O2  UNL     1     -25.596  51.179  10.510  0.00  0.00    +0.000 OA
BRANCH   2   5
ATOM      4  C8  UNL     1     -28.882  50.695   9.542  0.00  0.00    +0.000 C 
ATOM      5  C9  UNL     1     -27.964  50.936  10.487  0.00  0.00    +0.000 C 
BRANCH   4  11
ATOM      6  C2  UNL     1     -31.322  50.545  10.228  0.00  0.00    +0.000 A 
ATOM      7  C3  UNL     1     -32.459  49.747  10.472  0.00  0.00    +0.000 A 
ATOM      8  C4  UNL     1     -32.413  48.362  10.269  0.00  0.00    +0.000 A 
ATOM      9  C5  UNL     1     -31.235  47.765   9.817  0.00  0.00    +0.000 A 
ATOM     10  C6  UNL     1     -30.100  48.542   9.581  0.00  0.00    +0.000 A 
ATOM     11  C7  UNL     1     -30.121  49.927   9.806  0.00  0.00    +0.000 A 
BRANCH   6  13
ATOM     12  C1  UNL     1     -32.502  52.752  10.082  0.00  0.00    +0.000 C 
ATOM     13  O1  UNL     1     -31.366  51.943  10.367  0.00  0.00    +0.000 OA
ENDBRANCH   6  13
BRANCH   8  14
ATOM     14  O6  UNL     1     -33.536  47.572  10.505  0.00  0.00    +0.000 OA
ATOM     15  H20 UNL     1     -34.004  47.077   9.756  0.00  0.00    +0.000 HD
ENDBRANCH   8  14
ENDBRANCH   4  11
ENDBRANCH   2   5
ENDBRANCH   1   2
BRANCH   1  16
ATOM     16  C12 UNL     1     -28.192  53.496   9.326  0.00  0.00    +0.000 C 
ATOM     17  O3  UNL     1     -28.738  54.320  10.107  0.00  0.00    +0.000 OA
BRANCH  16  18
ATOM     18  C13 UNL     1     -28.978  53.005   8.173  0.00  0.00    +0.000 C 
ATOM     19  C14 UNL     1     -28.444  52.306   7.159  0.00  0.00    +0.000 C 
BRANCH  19  20
ATOM     20  C15 UNL     1     -29.233  51.802   6.008  0.00  0.00    +0.000 A 
ATOM     21  C16 UNL     1     -30.134  50.723   6.123  0.00  0.00    +0.000 A 
ATOM     22  C17 UNL     1     -30.872  50.282   5.006  0.00  0.00    +0.000 A 
ATOM     23  C18 UNL     1     -30.713  50.934   3.776  0.00  0.00    +0.000 A 
ATOM     24  C19 UNL     1     -29.834  52.017   3.663  0.00  0.00    +0.000 A 
ATOM     25  C20 UNL     1     -29.105  52.452   4.771  0.00  0.00    +0.000 A 
BRANCH  23  26
ATOM     26  O4  UNL     1     -31.439  50.501   2.668  0.00  0.00    +0.000 OA
ATOM     27  H16 UNL     1     -31.318  49.569   2.285  0.00  0.00    +0.000 HD
ENDBRANCH  23  26
BRANCH  22  28
ATOM     28  O5  UNL     1     -31.772  49.207   5.080  0.00  0.00    +0.000 OA
ATOM     29  C21 UNL     1     -32.445  48.798   6.266  0.00  0.00    +0.000 C 
ENDBRANCH  22  28
ENDBRANCH  19  20
ENDBRANCH  16  18
ENDBRANCH   1  16
TORSDOF 10
ENDMDL
