MODEL 1
REMARK VINA RESULT:      -3.3      0.000      0.000
REMARK  Name = .\Withaferin A.pdb
REMARK  8 active torsions:
REMARK  status: ('A' for Active; 'I' for Inactive)
REMARK    1  A    between atoms: C1_1  and  C2_2
REMARK    2  A    between atoms: C3_3  and  O6_33
REMARK    3  A    between atoms: C5_7  and  C7_9
REMARK    4  A    between atoms: C7_9  and  C8_10
REMARK    5  A    between atoms: C7_9  and  C9_11
REMARK    6  A    between atoms: C13_15  and  C27_32
REMARK    7  A    between atoms: C21_23  and  C26_30
REMARK    8  A    between atoms: C25_28  and  O4_29
REMARK                            x       y       z     vdW  Elec       q    Type
REMARK                         _______ _______ _______ _____ _____    ______ ____
ROOT
ATOM      1  C9  UNL     1       4.445  33.350  15.261  0.00  0.00    +0.000 C 
ATOM      2  C10 UNL     1       4.094  33.886  13.864  0.00  0.00    +0.000 C 
ATOM      3  C11 UNL     1       3.346  35.198  14.059  0.00  0.00    +0.000 C 
ATOM      4  C12 UNL     1       3.280  35.459  15.571  0.00  0.00    +0.000 C 
ATOM      5  C13 UNL     1       3.439  34.066  16.225  0.00  0.00    +0.000 C 
ATOM      6  C14 UNL     1       2.064  33.349  16.250  0.00  0.00    +0.000 C 
ATOM      7  C15 UNL     1       1.008  34.165  16.984  0.00  0.00    +0.000 C 
ATOM      8  C16 UNL     1       0.712  35.529  16.307  0.00  0.00    +0.000 C 
ATOM      9  C17 UNL     1       2.022  36.314  15.962  0.00  0.00    +0.000 C 
ATOM     10  C18 UNL     1       2.319  37.409  17.006  0.00  0.00    +0.000 C 
ATOM     11  C19 UNL     1       1.192  38.453  17.068  0.00  0.00    +0.000 C 
ATOM     12  C20 UNL     1      -0.196  37.931  17.076  0.00  0.00    +0.000 C 
ATOM     13  C21 UNL     1      -0.414  36.377  17.089  0.00  0.00    +0.000 C 
ATOM     14  C22 UNL     1      -1.782  36.099  16.474  0.00  0.00    +0.000 C 
ATOM     15  O3  UNL     1      -2.139  34.947  16.267  0.00  0.00    +0.000 OA
ATOM     16  C23 UNL     1      -2.722  37.229  16.132  0.00  0.00    +0.000 C 
ATOM     17  C24 UNL     1      -2.735  38.259  17.269  0.00  0.00    +0.000 C 
ATOM     18  C25 UNL     1      -1.337  38.873  17.534  0.00  0.00    +0.000 C 
ATOM     19  C26 UNL     1      -0.510  35.987  18.591  0.00  0.00    +0.000 C 
ATOM     20  O5  UNL     1       0.388  38.443  15.902  0.00  0.00    +0.000 OA
ATOM     21  C27 UNL     1       4.035  34.216  17.651  0.00  0.00    +0.000 C 
ENDROOT
BRANCH   1  22
ATOM     22  C7  UNL     1       4.517  31.778  15.292  0.00  0.00    +0.000 C 
ATOM     23  C8  UNL     1       3.764  31.133  14.109  0.00  0.00    +0.000 C 
BRANCH  22  30
ATOM     24  C1  UNL     1       4.521  31.563  20.463  0.00  0.00    +0.000 C 
ATOM     25  C2  UNL     1       3.804  31.442  19.147  0.00  0.00    +0.000 C 
ATOM     26  C3  UNL     1       2.560  30.931  19.098  0.00  0.00    +0.000 C 
ATOM     27  C4  UNL     1       1.880  30.812  17.795  0.00  0.00    +0.000 C 
ATOM     28  O1  UNL     1       0.659  30.514  17.729  0.00  0.00    +0.000 OA
ATOM     29  O2  UNL     1       2.599  31.048  16.622  0.00  0.00    +0.000 OA
ATOM     30  C5  UNL     1       4.023  31.176  16.645  0.00  0.00    +0.000 C 
ATOM     31  C6  UNL     1       4.459  31.983  17.891  0.00  0.00    +0.000 C 
BRANCH  26  32
ATOM     32  O6  UNL     1       1.923  30.512  20.268  0.00  0.00    +0.000 OA
ATOM     33  H38 UNL     1       2.040  31.007  21.144  0.00  0.00    +0.000 HD
ENDBRANCH  26  32
ENDBRANCH  22  30
ENDBRANCH   1  22
BRANCH  18  34
ATOM     34  O4  UNL     1      -1.183  39.157  18.900  0.00  0.00    +0.000 OA
ATOM     35  H31 UNL     1      -1.586  38.399  19.398  0.00  0.00    +0.000 HD
ENDBRANCH  18  34
TORSDOF 4
ENDMDL
