MODEL 1
REMARK VINA RESULT:      -5.9      0.000      0.000
REMARK  Name = .\Withaferin A.pdb
REMARK  8 active torsions:
REMARK  status: ('A' for Active; 'I' for Inactive)
REMARK    1  A    between atoms: C1_1  and  C2_2
REMARK    2  A    between atoms: C3_3  and  O6_33
REMARK    3  A    between atoms: C5_7  and  C7_9
REMARK    4  A    between atoms: C7_9  and  C8_10
REMARK    5  A    between atoms: C7_9  and  C9_11
REMARK    6  A    between atoms: C13_15  and  C27_32
REMARK    7  A    between atoms: C21_23  and  C26_30
REMARK    8  A    between atoms: C25_28  and  O4_29
REMARK                            x       y       z     vdW  Elec       q    Type
REMARK                         _______ _______ _______ _____ _____    ______ ____
ROOT
ATOM      1  C9  UNL     1       3.427  51.685 -19.869  0.00  0.00    +0.000 C 
ATOM      2  C10 UNL     1       3.176  51.700 -18.352  0.00  0.00    +0.000 C 
ATOM      3  C11 UNL     1       1.764  51.180 -18.123  0.00  0.00    +0.000 C 
ATOM      4  C12 UNL     1       1.186  50.824 -19.501  0.00  0.00    +0.000 C 
ATOM      5  C13 UNL     1       1.997  51.673 -20.507  0.00  0.00    +0.000 C 
ATOM      6  C14 UNL     1       1.394  53.100 -20.580  0.00  0.00    +0.000 C 
ATOM      7  C15 UNL     1      -0.079  53.079 -20.966  0.00  0.00    +0.000 C 
ATOM      8  C16 UNL     1      -0.971  52.343 -19.931  0.00  0.00    +0.000 C 
ATOM      9  C17 UNL     1      -0.380  50.950 -19.528  0.00  0.00    +0.000 C 
ATOM     10  C18 UNL     1      -1.080  49.797 -20.274  0.00  0.00    +0.000 C 
ATOM     11  C19 UNL     1      -2.582  49.742 -19.949  0.00  0.00    +0.000 C 
ATOM     12  C20 UNL     1      -3.311  51.034 -19.954  0.00  0.00    +0.000 C 
ATOM     13  C21 UNL     1      -2.528  52.335 -20.349  0.00  0.00    +0.000 C 
ATOM     14  C22 UNL     1      -3.238  53.516 -19.693  0.00  0.00    +0.000 C 
ATOM     15  O3  UNL     1      -2.752  54.637 -19.759  0.00  0.00    +0.000 OA
ATOM     16  C23 UNL     1      -4.552  53.328 -18.977  0.00  0.00    +0.000 C 
ATOM     17  C24 UNL     1      -5.469  52.413 -19.799  0.00  0.00    +0.000 C 
ATOM     18  C25 UNL     1      -4.857  51.010 -20.034  0.00  0.00    +0.000 C 
ATOM     19  C26 UNL     1      -2.729  52.487 -21.883  0.00  0.00    +0.000 C 
ATOM     20  O5  UNL     1      -2.896  50.429 -18.752  0.00  0.00    +0.000 OA
ATOM     21  C27 UNL     1       2.006  50.982 -21.897  0.00  0.00    +0.000 C 
ENDROOT
BRANCH   1  22
ATOM     22  C7  UNL     1       4.434  52.808 -20.314  0.00  0.00    +0.000 C 
ATOM     23  C8  UNL     1       4.266  54.106 -19.496  0.00  0.00    +0.000 C 
BRANCH  22  30
ATOM     24  C1  UNL     1       3.828  56.067 -24.289  0.00  0.00    +0.000 C 
ATOM     25  C2  UNL     1       4.460  54.846 -23.680  0.00  0.00    +0.000 C 
ATOM     26  C3  UNL     1       5.174  54.000 -24.446  0.00  0.00    +0.000 C 
ATOM     27  C4  UNL     1       5.776  52.802 -23.829  0.00  0.00    +0.000 C 
ATOM     28  O1  UNL     1       6.597  52.092 -24.467  0.00  0.00    +0.000 OA
ATOM     29  O2  UNL     1       5.439  52.465 -22.517  0.00  0.00    +0.000 OA
ATOM     30  C5  UNL     1       4.360  53.116 -21.843  0.00  0.00    +0.000 C 
ATOM     31  C6  UNL     1       4.360  54.625 -22.184  0.00  0.00    +0.000 C 
BRANCH  26  32
ATOM     32  O6  UNL     1       5.338  54.250 -25.810  0.00  0.00    +0.000 OA
ATOM     33  H38 UNL     1       6.210  54.053 -26.286  0.00  0.00    +0.000 HD
ENDBRANCH  26  32
ENDBRANCH  22  30
ENDBRANCH   1  22
BRANCH  18  34
ATOM     34  O4  UNL     1      -5.248  50.513 -21.288  0.00  0.00    +0.000 OA
ATOM     35  H31 UNL     1      -5.769  49.686 -21.117  0.00  0.00    +0.000 HD
ENDBRANCH  18  34
TORSDOF 4
ENDMDL
MODEL 2
REMARK VINA RESULT:      -4.5      1.802      2.350
REMARK  Name = .\Withaferin A.pdb
REMARK  8 active torsions:
REMARK  status: ('A' for Active; 'I' for Inactive)
REMARK    1  A    between atoms: C1_1  and  C2_2
REMARK    2  A    between atoms: C3_3  and  O6_33
REMARK    3  A    between atoms: C5_7  and  C7_9
REMARK    4  A    between atoms: C7_9  and  C8_10
REMARK    5  A    between atoms: C7_9  and  C9_11
REMARK    6  A    between atoms: C13_15  and  C27_32
REMARK    7  A    between atoms: C21_23  and  C26_30
REMARK    8  A    between atoms: C25_28  and  O4_29
REMARK                            x       y       z     vdW  Elec       q    Type
REMARK                         _______ _______ _______ _____ _____    ______ ____
ROOT
ATOM      1  C9  UNL     1       3.397  52.570 -22.370  0.00  0.00    +0.000 C 
ATOM      2  C10 UNL     1       3.628  51.183 -21.749  0.00  0.00    +0.000 C 
ATOM      3  C11 UNL     1       2.283  50.471 -21.723  0.00  0.00    +0.000 C 
ATOM      4  C12 UNL     1       1.258  51.421 -22.359  0.00  0.00    +0.000 C 
ATOM      5  C13 UNL     1       1.864  52.834 -22.192  0.00  0.00    +0.000 C 
ATOM      6  C14 UNL     1       1.538  53.370 -20.774  0.00  0.00    +0.000 C 
ATOM      7  C15 UNL     1       0.040  53.398 -20.504  0.00  0.00    +0.000 C 
ATOM      8  C16 UNL     1      -0.612  51.991 -20.536  0.00  0.00    +0.000 C 
ATOM      9  C17 UNL     1      -0.191  51.174 -21.803  0.00  0.00    +0.000 C 
ATOM     10  C18 UNL     1      -1.284  51.208 -22.891  0.00  0.00    +0.000 C 
ATOM     11  C19 UNL     1      -2.599  50.586 -22.391  0.00  0.00    +0.000 C 
ATOM     12  C20 UNL     1      -3.045  50.980 -21.033  0.00  0.00    +0.000 C 
ATOM     13  C21 UNL     1      -2.196  52.035 -20.240  0.00  0.00    +0.000 C 
ATOM     14  C22 UNL     1      -2.444  51.802 -18.753  0.00  0.00    +0.000 C 
ATOM     15  O3  UNL     1      -1.806  52.429 -17.919  0.00  0.00    +0.000 OA
ATOM     16  C23 UNL     1      -3.489  50.818 -18.287  0.00  0.00    +0.000 C 
ATOM     17  C24 UNL     1      -4.764  50.973 -19.127  0.00  0.00    +0.000 C 
ATOM     18  C25 UNL     1      -4.519  50.721 -20.636  0.00  0.00    +0.000 C 
ATOM     19  C26 UNL     1      -2.824  53.414 -20.589  0.00  0.00    +0.000 C 
ATOM     20  O5  UNL     1      -2.402  49.749 -21.266  0.00  0.00    +0.000 OA
ATOM     21  C27 UNL     1       1.322  53.776 -23.301  0.00  0.00    +0.000 C 
ENDROOT
BRANCH   1  22
ATOM     22  C7  UNL     1       4.408  53.642 -21.819  0.00  0.00    +0.000 C 
ATOM     23  C8  UNL     1       3.926  54.280 -20.499  0.00  0.00    +0.000 C 
BRANCH  22  30
ATOM     24  C1  UNL     1       6.594  58.136 -23.164  0.00  0.00    +0.000 C 
ATOM     25  C2  UNL     1       6.186  56.727 -23.493  0.00  0.00    +0.000 C 
ATOM     26  C3  UNL     1       6.260  56.279 -24.761  0.00  0.00    +0.000 C 
ATOM     27  C4  UNL     1       5.844  54.896 -25.062  0.00  0.00    +0.000 C 
ATOM     28  O1  UNL     1       6.069  54.387 -26.191  0.00  0.00    +0.000 OA
ATOM     29  O2  UNL     1       5.208  54.142 -24.076  0.00  0.00    +0.000 OA
ATOM     30  C5  UNL     1       4.747  54.749 -22.866  0.00  0.00    +0.000 C 
ATOM     31  C6  UNL     1       5.780  55.790 -22.374  0.00  0.00    +0.000 C 
BRANCH  26  32
ATOM     32  O6  UNL     1       6.717  57.117 -25.780  0.00  0.00    +0.000 OA
ATOM     33  H38 UNL     1       6.200  57.237 -26.642  0.00  0.00    +0.000 HD
ENDBRANCH  26  32
ENDBRANCH  22  30
ENDBRANCH   1  22
BRANCH  18  34
ATOM     34  O4  UNL     1      -5.358  51.541 -21.407  0.00  0.00    +0.000 OA
ATOM     35  H31 UNL     1      -5.858  50.942 -22.021  0.00  0.00    +0.000 HD
ENDBRANCH  18  34
TORSDOF 4
ENDMDL
MODEL 3
REMARK VINA RESULT:      -4.5      2.062      3.319
REMARK  Name = .\Withaferin A.pdb
REMARK  8 active torsions:
REMARK  status: ('A' for Active; 'I' for Inactive)
REMARK    1  A    between atoms: C1_1  and  C2_2
REMARK    2  A    between atoms: C3_3  and  O6_33
REMARK    3  A    between atoms: C5_7  and  C7_9
REMARK    4  A    between atoms: C7_9  and  C8_10
REMARK    5  A    between atoms: C7_9  and  C9_11
REMARK    6  A    between atoms: C13_15  and  C27_32
REMARK    7  A    between atoms: C21_23  and  C26_30
REMARK    8  A    between atoms: C25_28  and  O4_29
REMARK                            x       y       z     vdW  Elec       q    Type
REMARK                         _______ _______ _______ _____ _____    ______ ____
ROOT
ATOM      1  C9  UNL     1       2.319  53.927 -23.363  0.00  0.00    +0.000 C 
ATOM      2  C10 UNL     1       3.018  52.702 -22.751  0.00  0.00    +0.000 C 
ATOM      3  C11 UNL     1       1.941  51.665 -22.464  0.00  0.00    +0.000 C 
ATOM      4  C12 UNL     1       0.606  52.260 -22.935  0.00  0.00    +0.000 C 
ATOM      5  C13 UNL     1       0.823  53.791 -22.922  0.00  0.00    +0.000 C 
ATOM      6  C14 UNL     1       0.600  54.331 -21.485  0.00  0.00    +0.000 C 
ATOM      7  C15 UNL     1      -0.784  53.984 -20.953  0.00  0.00    +0.000 C 
ATOM      8  C16 UNL     1      -1.024  52.457 -20.826  0.00  0.00    +0.000 C 
ATOM      9  C17 UNL     1      -0.609  51.684 -22.123  0.00  0.00    +0.000 C 
ATOM     10  C18 UNL     1      -1.832  51.345 -22.998  0.00  0.00    +0.000 C 
ATOM     11  C19 UNL     1      -2.828  50.440 -22.254  0.00  0.00    +0.000 C 
ATOM     12  C20 UNL     1      -3.137  50.805 -20.850  0.00  0.00    +0.000 C 
ATOM     13  C21 UNL     1      -2.490  52.105 -20.254  0.00  0.00    +0.000 C 
ATOM     14  C22 UNL     1      -2.418  51.930 -18.740  0.00  0.00    +0.000 C 
ATOM     15  O3  UNL     1      -1.847  52.766 -18.053  0.00  0.00    +0.000 OA
ATOM     16  C23 UNL     1      -3.064  50.745 -18.066  0.00  0.00    +0.000 C 
ATOM     17  C24 UNL     1      -4.452  50.494 -18.669  0.00  0.00    +0.000 C 
ATOM     18  C25 UNL     1      -4.399  50.200 -20.189  0.00  0.00    +0.000 C 
ATOM     19  C26 UNL     1      -3.518  53.239 -20.526  0.00  0.00    +0.000 C 
ATOM     20  O5  UNL     1      -2.229  49.774 -21.157  0.00  0.00    +0.000 OA
ATOM     21  C27 UNL     1      -0.129  54.469 -23.944  0.00  0.00    +0.000 C 
ENDROOT
BRANCH   1  22
ATOM     22  C7  UNL     1       3.076  55.267 -23.033  0.00  0.00    +0.000 C 
ATOM     23  C8  UNL     1       3.656  55.938 -24.295  0.00  0.00    +0.000 C 
BRANCH  22  30
ATOM     24  C1  UNL     1       4.647  54.889 -18.116  0.00  0.00    +0.000 C 
ATOM     25  C2  UNL     1       4.773  54.507 -19.565  0.00  0.00    +0.000 C 
ATOM     26  C3  UNL     1       5.837  53.801 -19.989  0.00  0.00    +0.000 C 
ATOM     27  C4  UNL     1       5.945  53.447 -21.417  0.00  0.00    +0.000 C 
ATOM     28  O1  UNL     1       6.822  52.637 -21.816  0.00  0.00    +0.000 OA
ATOM     29  O2  UNL     1       5.051  54.007 -22.331  0.00  0.00    +0.000 OA
ATOM     30  C5  UNL     1       4.189  55.083 -21.954  0.00  0.00    +0.000 C 
ATOM     31  C6  UNL     1       3.649  54.847 -20.523  0.00  0.00    +0.000 C 
BRANCH  26  32
ATOM     32  O6  UNL     1       6.831  53.413 -19.088  0.00  0.00    +0.000 OA
ATOM     33  H38 UNL     1       6.767  52.549 -18.564  0.00  0.00    +0.000 HD
ENDBRANCH  26  32
ENDBRANCH  22  30
ENDBRANCH   1  22
BRANCH  18  34
ATOM     34  O4  UNL     1      -5.543  50.708 -20.823  0.00  0.00    +0.000 OA
ATOM     35  H31 UNL     1      -5.301  51.604 -21.175  0.00  0.00    +0.000 HD
ENDBRANCH  18  34
TORSDOF 4
ENDMDL
MODEL 4
REMARK VINA RESULT:      -4.2      1.476      2.453
REMARK  Name = .\Withaferin A.pdb
REMARK  8 active torsions:
REMARK  status: ('A' for Active; 'I' for Inactive)
REMARK    1  A    between atoms: C1_1  and  C2_2
REMARK    2  A    between atoms: C3_3  and  O6_33
REMARK    3  A    between atoms: C5_7  and  C7_9
REMARK    4  A    between atoms: C7_9  and  C8_10
REMARK    5  A    between atoms: C7_9  and  C9_11
REMARK    6  A    between atoms: C13_15  and  C27_32
REMARK    7  A    between atoms: C21_23  and  C26_30
REMARK    8  A    between atoms: C25_28  and  O4_29
REMARK                            x       y       z     vdW  Elec       q    Type
REMARK                         _______ _______ _______ _____ _____    ______ ____
ROOT
ATOM      1  C9  UNL     1       5.040  53.079 -20.216  0.00  0.00    +0.000 C 
ATOM      2  C10 UNL     1       4.848  53.648 -18.801  0.00  0.00    +0.000 C 
ATOM      3  C11 UNL     1       3.604  52.993 -18.216  0.00  0.00    +0.000 C 
ATOM      4  C12 UNL     1       3.075  52.010 -19.271  0.00  0.00    +0.000 C 
ATOM      5  C13 UNL     1       3.629  52.530 -20.618  0.00  0.00    +0.000 C 
ATOM      6  C14 UNL     1       2.710  53.659 -21.152  0.00  0.00    +0.000 C 
ATOM      7  C15 UNL     1       1.269  53.193 -21.314  0.00  0.00    +0.000 C 
ATOM      8  C16 UNL     1       0.611  52.771 -19.974  0.00  0.00    +0.000 C 
ATOM      9  C17 UNL     1       1.522  51.802 -19.148  0.00  0.00    +0.000 C 
ATOM     10  C18 UNL     1       1.081  50.333 -19.306  0.00  0.00    +0.000 C 
ATOM     11  C19 UNL     1      -0.354  50.115 -18.800  0.00  0.00    +0.000 C 
ATOM     12  C20 UNL     1      -1.362  51.125 -19.205  0.00  0.00    +0.000 C 
ATOM     13  C21 UNL     1      -0.917  52.288 -20.159  0.00  0.00    +0.000 C 
ATOM     14  C22 UNL     1      -1.856  53.466 -19.919  0.00  0.00    +0.000 C 
ATOM     15  O3  UNL     1      -1.646  54.539 -20.466  0.00  0.00    +0.000 OA
ATOM     16  C23 UNL     1      -3.065  53.322 -19.027  0.00  0.00    +0.000 C 
ATOM     17  C24 UNL     1      -3.774  51.994 -19.318  0.00  0.00    +0.000 C 
ATOM     18  C25 UNL     1      -2.862  50.765 -19.076  0.00  0.00    +0.000 C 
ATOM     19  C26 UNL     1      -1.203  51.772 -21.598  0.00  0.00    +0.000 C 
ATOM     20  O5  UNL     1      -0.775  51.146 -17.925  0.00  0.00    +0.000 OA
ATOM     21  C27 UNL     1       3.748  51.359 -21.630  0.00  0.00    +0.000 C 
ENDROOT
BRANCH   1  22
ATOM     22  C7  UNL     1       5.743  54.107 -21.178  0.00  0.00    +0.000 C 
ATOM     23  C8  UNL     1       4.987  55.450 -21.254  0.00  0.00    +0.000 C 
BRANCH  22  30
ATOM     24  C1  UNL     1       6.825  50.214 -24.412  0.00  0.00    +0.000 C 
ATOM     25  C2  UNL     1       6.105  51.497 -24.099  0.00  0.00    +0.000 C 
ATOM     26  C3  UNL     1       5.449  52.159 -25.070  0.00  0.00    +0.000 C 
ATOM     27  C4  UNL     1       4.759  53.421 -24.743  0.00  0.00    +0.000 C 
ATOM     28  O1  UNL     1       3.988  53.968 -25.574  0.00  0.00    +0.000 OA
ATOM     29  O2  UNL     1       4.954  54.004 -23.490  0.00  0.00    +0.000 OA
ATOM     30  C5  UNL     1       5.977  53.532 -22.610  0.00  0.00    +0.000 C 
ATOM     31  C6  UNL     1       6.049  51.988 -22.667  0.00  0.00    +0.000 C 
BRANCH  26  32
ATOM     32  O6  UNL     1       5.428  51.660 -26.375  0.00  0.00    +0.000 OA
ATOM     33  H38 UNL     1       5.215  52.253 -27.168  0.00  0.00    +0.000 HD
ENDBRANCH  26  32
ENDBRANCH  22  30
ENDBRANCH   1  22
BRANCH  18  34
ATOM     34  O4  UNL     1      -3.173  49.742 -19.986  0.00  0.00    +0.000 OA
ATOM     35  H31 UNL     1      -2.503  49.796 -20.717  0.00  0.00    +0.000 HD
ENDBRANCH  18  34
TORSDOF 4
ENDMDL
