MODEL 1
REMARK VINA RESULT:      -8.4      0.000      0.000
REMARK  Name = .\Withaferin A.pdb
REMARK  8 active torsions:
REMARK  status: ('A' for Active; 'I' for Inactive)
REMARK    1  A    between atoms: C1_1  and  C2_2
REMARK    2  A    between atoms: C3_3  and  O6_33
REMARK    3  A    between atoms: C5_7  and  C7_9
REMARK    4  A    between atoms: C7_9  and  C8_10
REMARK    5  A    between atoms: C7_9  and  C9_11
REMARK    6  A    between atoms: C13_15  and  C27_32
REMARK    7  A    between atoms: C21_23  and  C26_30
REMARK    8  A    between atoms: C25_28  and  O4_29
REMARK                            x       y       z     vdW  Elec       q    Type
REMARK                         _______ _______ _______ _____ _____    ______ ____
ROOT
ATOM      1  C9  UNL     1      -7.886  52.188 -14.569  0.00  0.00    +0.000 C 
ATOM      2  C10 UNL     1      -7.208  51.273 -13.537  0.00  0.00    +0.000 C 
ATOM      3  C11 UNL     1      -5.947  50.718 -14.184  0.00  0.00    +0.000 C 
ATOM      4  C12 UNL     1      -5.858  51.328 -15.591  0.00  0.00    +0.000 C 
ATOM      5  C13 UNL     1      -7.309  51.724 -15.949  0.00  0.00    +0.000 C 
ATOM      6  C14 UNL     1      -8.062  50.483 -16.494  0.00  0.00    +0.000 C 
ATOM      7  C15 UNL     1      -7.362  49.875 -17.702  0.00  0.00    +0.000 C 
ATOM      8  C16 UNL     1      -5.940  49.345 -17.381  0.00  0.00    +0.000 C 
ATOM      9  C17 UNL     1      -5.086  50.390 -16.587  0.00  0.00    +0.000 C 
ATOM     10  C18 UNL     1      -4.105  51.141 -17.509  0.00  0.00    +0.000 C 
ATOM     11  C19 UNL     1      -3.106  50.180 -18.175  0.00  0.00    +0.000 C 
ATOM     12  C20 UNL     1      -3.664  48.924 -18.733  0.00  0.00    +0.000 C 
ATOM     13  C21 UNL     1      -5.215  48.697 -18.666  0.00  0.00    +0.000 C 
ATOM     14  C22 UNL     1      -5.461  47.191 -18.686  0.00  0.00    +0.000 C 
ATOM     15  O3  UNL     1      -6.592  46.753 -18.530  0.00  0.00    +0.000 OA
ATOM     16  C23 UNL     1      -4.326  46.224 -18.920  0.00  0.00    +0.000 C 
ATOM     17  C24 UNL     1      -3.429  46.736 -20.054  0.00  0.00    +0.000 C 
ATOM     18  C25 UNL     1      -2.810  48.123 -19.747  0.00  0.00    +0.000 C 
ATOM     19  C26 UNL     1      -5.772  49.260 -20.005  0.00  0.00    +0.000 C 
ATOM     20  O5  UNL     1      -3.009  48.946 -17.487  0.00  0.00    +0.000 OA
ATOM     21  C27 UNL     1      -7.302  52.888 -16.976  0.00  0.00    +0.000 C 
ENDROOT
BRANCH   1  22
ATOM     22  C7  UNL     1      -9.449  52.229 -14.389  0.00  0.00    +0.000 C 
ATOM     23  C8  UNL     1      -9.907  53.407 -13.503  0.00  0.00    +0.000 C 
BRANCH  22  30
ATOM     24  C1  UNL     1     -11.331  49.274 -10.579  0.00  0.00    +0.000 C 
ATOM     25  C2  UNL     1     -11.303  49.688 -12.025  0.00  0.00    +0.000 C 
ATOM     26  C3  UNL     1     -11.960  48.964 -12.950  0.00  0.00    +0.000 C 
ATOM     27  C4  UNL     1     -11.909  49.383 -14.363  0.00  0.00    +0.000 C 
ATOM     28  O1  UNL     1     -12.654  48.844 -15.222  0.00  0.00    +0.000 OA
ATOM     29  O2  UNL     1     -11.035  50.402 -14.745  0.00  0.00    +0.000 OA
ATOM     30  C5  UNL     1     -10.031  50.884 -13.849  0.00  0.00    +0.000 C 
ATOM     31  C6  UNL     1     -10.605  50.975 -12.415  0.00  0.00    +0.000 C 
BRANCH  26  32
ATOM     32  O6  UNL     1     -12.675  47.824 -12.576  0.00  0.00    +0.000 OA
ATOM     33  H38 UNL     1     -12.341  47.200 -11.852  0.00  0.00    +0.000 HD
ENDBRANCH  26  32
ENDBRANCH  22  30
ENDBRANCH   1  22
BRANCH  18  34
ATOM     34  O4  UNL     1      -2.675  48.867 -20.929  0.00  0.00    +0.000 OA
ATOM     35  H31 UNL     1      -2.144  49.674 -20.700  0.00  0.00    +0.000 HD
ENDBRANCH  18  34
TORSDOF 4
ENDMDL
MODEL 2
REMARK VINA RESULT:      -8.3      2.568      2.993
REMARK  Name = .\Withaferin A.pdb
REMARK  8 active torsions:
REMARK  status: ('A' for Active; 'I' for Inactive)
REMARK    1  A    between atoms: C1_1  and  C2_2
REMARK    2  A    between atoms: C3_3  and  O6_33
REMARK    3  A    between atoms: C5_7  and  C7_9
REMARK    4  A    between atoms: C7_9  and  C8_10
REMARK    5  A    between atoms: C7_9  and  C9_11
REMARK    6  A    between atoms: C13_15  and  C27_32
REMARK    7  A    between atoms: C21_23  and  C26_30
REMARK    8  A    between atoms: C25_28  and  O4_29
REMARK                            x       y       z     vdW  Elec       q    Type
REMARK                         _______ _______ _______ _____ _____    ______ ____
ROOT
ATOM      1  C9  UNL     1      -6.905  52.013 -13.871  0.00  0.00    +0.000 C 
ATOM      2  C10 UNL     1      -6.752  50.497 -14.065  0.00  0.00    +0.000 C 
ATOM      3  C11 UNL     1      -5.471  50.270 -14.856  0.00  0.00    +0.000 C 
ATOM      4  C12 UNL     1      -4.845  51.650 -15.104  0.00  0.00    +0.000 C 
ATOM      5  C13 UNL     1      -6.021  52.649 -14.997  0.00  0.00    +0.000 C 
ATOM      6  C14 UNL     1      -6.774  52.705 -16.351  0.00  0.00    +0.000 C 
ATOM      7  C15 UNL     1      -5.853  53.087 -17.502  0.00  0.00    +0.000 C 
ATOM      8  C16 UNL     1      -4.718  52.059 -17.743  0.00  0.00    +0.000 C 
ATOM      9  C17 UNL     1      -3.981  51.672 -16.416  0.00  0.00    +0.000 C 
ATOM     10  C18 UNL     1      -2.647  52.429 -16.265  0.00  0.00    +0.000 C 
ATOM     11  C19 UNL     1      -1.676  52.101 -17.412  0.00  0.00    +0.000 C 
ATOM     12  C20 UNL     1      -2.245  52.090 -18.781  0.00  0.00    +0.000 C 
ATOM     13  C21 UNL     1      -3.756  52.473 -18.968  0.00  0.00    +0.000 C 
ATOM     14  C22 UNL     1      -4.245  51.802 -20.249  0.00  0.00    +0.000 C 
ATOM     15  O3  UNL     1      -5.427  51.857 -20.557  0.00  0.00    +0.000 OA
ATOM     16  C23 UNL     1      -3.282  51.085 -21.163  0.00  0.00    +0.000 C 
ATOM     17  C24 UNL     1      -2.003  51.915 -21.330  0.00  0.00    +0.000 C 
ATOM     18  C25 UNL     1      -1.276  52.167 -19.985  0.00  0.00    +0.000 C 
ATOM     19  C26 UNL     1      -3.763  54.005 -19.233  0.00  0.00    +0.000 C 
ATOM     20  O5  UNL     1      -2.016  50.896 -18.072  0.00  0.00    +0.000 OA
ATOM     21  C27 UNL     1      -5.491  54.046 -14.576  0.00  0.00    +0.000 C 
ENDROOT
BRANCH   1  22
ATOM     22  C7  UNL     1      -8.414  52.449 -13.773  0.00  0.00    +0.000 C 
ATOM     23  C8  UNL     1      -8.646  53.521 -12.687  0.00  0.00    +0.000 C 
BRANCH  22  30
ATOM     24  C1  UNL     1     -11.360  49.438 -10.765  0.00  0.00    +0.000 C 
ATOM     25  C2  UNL     1     -11.088  50.108 -12.084  0.00  0.00    +0.000 C 
ATOM     26  C3  UNL     1     -11.824  49.796 -13.167  0.00  0.00    +0.000 C 
ATOM     27  C4  UNL     1     -11.533  50.458 -14.452  0.00  0.00    +0.000 C 
ATOM     28  O1  UNL     1     -12.311  50.330 -15.434  0.00  0.00    +0.000 OA
ATOM     29  O2  UNL     1     -10.388  51.246 -14.573  0.00  0.00    +0.000 OA
ATOM     30  C5  UNL     1      -9.380  51.241 -13.559  0.00  0.00    +0.000 C 
ATOM     31  C6  UNL     1     -10.041  51.200 -12.161  0.00  0.00    +0.000 C 
BRANCH  26  32
ATOM     32  O6  UNL     1     -12.848  48.850 -13.075  0.00  0.00    +0.000 OA
ATOM     33  H38 UNL     1     -13.495  48.691 -13.838  0.00  0.00    +0.000 HD
ENDBRANCH  26  32
ENDBRANCH  22  30
ENDBRANCH   1  22
BRANCH  18  34
ATOM     34  O4  UNL     1      -0.652  53.425 -19.998  0.00  0.00    +0.000 OA
ATOM     35  H31 UNL     1      -1.318  54.078 -19.658  0.00  0.00    +0.000 HD
ENDBRANCH  18  34
TORSDOF 4
ENDMDL
MODEL 3
REMARK VINA RESULT:      -8.3      3.886      5.068
REMARK  Name = .\Withaferin A.pdb
REMARK  8 active torsions:
REMARK  status: ('A' for Active; 'I' for Inactive)
REMARK    1  A    between atoms: C1_1  and  C2_2
REMARK    2  A    between atoms: C3_3  and  O6_33
REMARK    3  A    between atoms: C5_7  and  C7_9
REMARK    4  A    between atoms: C7_9  and  C8_10
REMARK    5  A    between atoms: C7_9  and  C9_11
REMARK    6  A    between atoms: C13_15  and  C27_32
REMARK    7  A    between atoms: C21_23  and  C26_30
REMARK    8  A    between atoms: C25_28  and  O4_29
REMARK                            x       y       z     vdW  Elec       q    Type
REMARK                         _______ _______ _______ _____ _____    ______ ____
ROOT
ATOM      1  C9  UNL     1      -5.272  53.478 -12.728  0.00  0.00    +0.000 C 
ATOM      2  C10 UNL     1      -6.426  52.542 -13.120  0.00  0.00    +0.000 C 
ATOM      3  C11 UNL     1      -5.867  51.524 -14.104  0.00  0.00    +0.000 C 
ATOM      4  C12 UNL     1      -4.373  51.834 -14.272  0.00  0.00    +0.000 C 
ATOM      5  C13 UNL     1      -4.226  53.324 -13.883  0.00  0.00    +0.000 C 
ATOM      6  C14 UNL     1      -4.587  54.212 -15.102  0.00  0.00    +0.000 C 
ATOM      7  C15 UNL     1      -3.727  53.891 -16.317  0.00  0.00    +0.000 C 
ATOM      8  C16 UNL     1      -3.918  52.442 -16.835  0.00  0.00    +0.000 C 
ATOM      9  C17 UNL     1      -3.838  51.387 -15.681  0.00  0.00    +0.000 C 
ATOM     10  C18 UNL     1      -2.457  50.704 -15.629  0.00  0.00    +0.000 C 
ATOM     11  C19 UNL     1      -2.152  49.945 -16.931  0.00  0.00    +0.000 C 
ATOM     12  C20 UNL     1      -2.462  50.650 -18.199  0.00  0.00    +0.000 C 
ATOM     13  C21 UNL     1      -3.008  52.119 -18.126  0.00  0.00    +0.000 C 
ATOM     14  C22 UNL     1      -3.815  52.374 -19.396  0.00  0.00    +0.000 C 
ATOM     15  O3  UNL     1      -4.440  53.417 -19.526  0.00  0.00    +0.000 OA
ATOM     16  C23 UNL     1      -3.838  51.362 -20.514  0.00  0.00    +0.000 C 
ATOM     17  C24 UNL     1      -2.423  50.821 -20.759  0.00  0.00    +0.000 C 
ATOM     18  C25 UNL     1      -1.824  50.128 -19.509  0.00  0.00    +0.000 C 
ATOM     19  C26 UNL     1      -1.750  53.030 -18.204  0.00  0.00    +0.000 C 
ATOM     20  O5  UNL     1      -3.324  49.666 -17.675  0.00  0.00    +0.000 OA
ATOM     21  C27 UNL     1      -2.784  53.600 -13.379  0.00  0.00    +0.000 C 
ENDROOT
BRANCH   1  22
ATOM     22  C7  UNL     1      -5.778  54.924 -12.368  0.00  0.00    +0.000 C 
ATOM     23  C8  UNL     1      -4.684  55.778 -11.694  0.00  0.00    +0.000 C 
BRANCH  22  30
ATOM     24  C1  UNL     1      -8.868  56.976  -8.759  0.00  0.00    +0.000 C 
ATOM     25  C2  UNL     1      -8.677  56.207 -10.036  0.00  0.00    +0.000 C 
ATOM     26  C3  UNL     1      -9.718  55.573 -10.608  0.00  0.00    +0.000 C 
ATOM     27  C4  UNL     1      -9.504  54.815 -11.855  0.00  0.00    +0.000 C 
ATOM     28  O1  UNL     1     -10.479  54.367 -12.513  0.00  0.00    +0.000 OA
ATOM     29  O2  UNL     1      -8.203  54.609 -12.317  0.00  0.00    +0.000 OA
ATOM     30  C5  UNL     1      -7.073  54.912 -11.495  0.00  0.00    +0.000 C 
ATOM     31  C6  UNL     1      -7.325  56.227 -10.720  0.00  0.00    +0.000 C 
BRANCH  26  32
ATOM     32  O6  UNL     1     -10.984  55.626 -10.022  0.00  0.00    +0.000 OA
ATOM     33  H38 UNL     1     -11.830  55.571 -10.577  0.00  0.00    +0.000 HD
ENDBRANCH  26  32
ENDBRANCH  22  30
ENDBRANCH   1  22
BRANCH  18  34
ATOM     34  O4  UNL     1      -0.436  50.330 -19.461  0.00  0.00    +0.000 OA
ATOM     35  H31 UNL     1      -0.148  50.561 -20.382  0.00  0.00    +0.000 HD
ENDBRANCH  18  34
TORSDOF 4
ENDMDL
MODEL 4
REMARK VINA RESULT:      -8.2      3.041      3.859
REMARK  Name = .\Withaferin A.pdb
REMARK  8 active torsions:
REMARK  status: ('A' for Active; 'I' for Inactive)
REMARK    1  A    between atoms: C1_1  and  C2_2
REMARK    2  A    between atoms: C3_3  and  O6_33
REMARK    3  A    between atoms: C5_7  and  C7_9
REMARK    4  A    between atoms: C7_9  and  C8_10
REMARK    5  A    between atoms: C7_9  and  C9_11
REMARK    6  A    between atoms: C13_15  and  C27_32
REMARK    7  A    between atoms: C21_23  and  C26_30
REMARK    8  A    between atoms: C25_28  and  O4_29
REMARK                            x       y       z     vdW  Elec       q    Type
REMARK                         _______ _______ _______ _____ _____    ______ ____
ROOT
ATOM      1  C9  UNL     1      -8.764  51.535 -13.520  0.00  0.00    +0.000 C 
ATOM      2  C10 UNL     1      -8.534  50.109 -14.045  0.00  0.00    +0.000 C 
ATOM      3  C11 UNL     1      -7.060  49.996 -14.412  0.00  0.00    +0.000 C 
ATOM      4  C12 UNL     1      -6.408  51.345 -14.075  0.00  0.00    +0.000 C 
ATOM      5  C13 UNL     1      -7.568  52.367 -14.094  0.00  0.00    +0.000 C 
ATOM      6  C14 UNL     1      -7.834  52.817 -15.554  0.00  0.00    +0.000 C 
ATOM      7  C15 UNL     1      -6.592  53.409 -16.205  0.00  0.00    +0.000 C 
ATOM      8  C16 UNL     1      -5.425  52.395 -16.328  0.00  0.00    +0.000 C 
ATOM      9  C17 UNL     1      -5.160  51.634 -14.985  0.00  0.00    +0.000 C 
ATOM     10  C18 UNL     1      -3.962  52.230 -14.220  0.00  0.00    +0.000 C 
ATOM     11  C19 UNL     1      -2.663  52.132 -15.037  0.00  0.00    +0.000 C 
ATOM     12  C20 UNL     1      -2.749  52.507 -16.469  0.00  0.00    +0.000 C 
ATOM     13  C21 UNL     1      -4.119  53.033 -17.026  0.00  0.00    +0.000 C 
ATOM     14  C22 UNL     1      -4.149  52.744 -18.524  0.00  0.00    +0.000 C 
ATOM     15  O3  UNL     1      -5.165  52.960 -19.170  0.00  0.00    +0.000 OA
ATOM     16  C23 UNL     1      -2.928  52.212 -19.234  0.00  0.00    +0.000 C 
ATOM     17  C24 UNL     1      -1.678  52.962 -18.757  0.00  0.00    +0.000 C 
ATOM     18  C25 UNL     1      -1.438  52.814 -17.233  0.00  0.00    +0.000 C 
ATOM     19  C26 UNL     1      -4.062  54.579 -16.868  0.00  0.00    +0.000 C 
ATOM     20  O5  UNL     1      -2.748  51.159 -16.063  0.00  0.00    +0.000 OA
ATOM     21  C27 UNL     1      -7.228  53.571 -13.175  0.00  0.00    +0.000 C 
ENDROOT
BRANCH   1  22
ATOM     22  C7  UNL     1     -10.228  52.040 -13.802  0.00  0.00    +0.000 C 
ATOM     23  C8  UNL     1     -10.528  53.385 -13.107  0.00  0.00    +0.000 C 
BRANCH  22  30
ATOM     24  C1  UNL     1     -13.428  48.163 -15.033  0.00  0.00    +0.000 C 
ATOM     25  C2  UNL     1     -12.517  48.850 -14.053  0.00  0.00    +0.000 C 
ATOM     26  C3  UNL     1     -12.475  48.445 -12.770  0.00  0.00    +0.000 C 
ATOM     27  C4  UNL     1     -11.582  49.140 -11.824  0.00  0.00    +0.000 C 
ATOM     28  O1  UNL     1     -11.378  48.678 -10.671  0.00  0.00    +0.000 OA
ATOM     29  O2  UNL     1     -10.945  50.317 -12.221  0.00  0.00    +0.000 OA
ATOM     30  C5  UNL     1     -11.315  50.982 -13.432  0.00  0.00    +0.000 C 
ATOM     31  C6  UNL     1     -11.585  49.939 -14.543  0.00  0.00    +0.000 C 
BRANCH  26  32
ATOM     32  O6  UNL     1     -13.272  47.383 -12.338  0.00  0.00    +0.000 OA
ATOM     33  H38 UNL     1     -13.497  46.605 -12.946  0.00  0.00    +0.000 HD
ENDBRANCH  26  32
ENDBRANCH  22  30
ENDBRANCH   1  22
BRANCH  18  34
ATOM     34  O4  UNL     1      -0.864  53.986 -16.716  0.00  0.00    +0.000 OA
ATOM     35  H31 UNL     1      -1.238  54.743 -17.238  0.00  0.00    +0.000 HD
ENDBRANCH  18  34
TORSDOF 4
ENDMDL
MODEL 5
REMARK VINA RESULT:      -8.0      3.890      7.690
REMARK  Name = .\Withaferin A.pdb
REMARK  8 active torsions:
REMARK  status: ('A' for Active; 'I' for Inactive)
REMARK    1  A    between atoms: C1_1  and  C2_2
REMARK    2  A    between atoms: C3_3  and  O6_33
REMARK    3  A    between atoms: C5_7  and  C7_9
REMARK    4  A    between atoms: C7_9  and  C8_10
REMARK    5  A    between atoms: C7_9  and  C9_11
REMARK    6  A    between atoms: C13_15  and  C27_32
REMARK    7  A    between atoms: C21_23  and  C26_30
REMARK    8  A    between atoms: C25_28  and  O4_29
REMARK                            x       y       z     vdW  Elec       q    Type
REMARK                         _______ _______ _______ _____ _____    ______ ____
ROOT
ATOM      1  C9  UNL     1      -5.544  52.708 -15.260  0.00  0.00    +0.000 C 
ATOM      2  C10 UNL     1      -4.928  51.549 -14.461  0.00  0.00    +0.000 C 
ATOM      3  C11 UNL     1      -5.925  50.399 -14.491  0.00  0.00    +0.000 C 
ATOM      4  C12 UNL     1      -7.121  50.863 -15.335  0.00  0.00    +0.000 C 
ATOM      5  C13 UNL     1      -7.081  52.408 -15.272  0.00  0.00    +0.000 C 
ATOM      6  C14 UNL     1      -7.767  52.889 -13.967  0.00  0.00    +0.000 C 
ATOM      7  C15 UNL     1      -9.201  52.388 -13.858  0.00  0.00    +0.000 C 
ATOM      8  C16 UNL     1      -9.305  50.842 -13.793  0.00  0.00    +0.000 C 
ATOM      9  C17 UNL     1      -8.452  50.146 -14.907  0.00  0.00    +0.000 C 
ATOM     10  C18 UNL     1      -9.325  49.702 -16.097  0.00  0.00    +0.000 C 
ATOM     11  C19 UNL     1     -10.393  48.682 -15.667  0.00  0.00    +0.000 C 
ATOM     12  C20 UNL     1     -11.132  48.982 -14.417  0.00  0.00    +0.000 C 
ATOM     13  C21 UNL     1     -10.827  50.327 -13.669  0.00  0.00    +0.000 C 
ATOM     14  C22 UNL     1     -11.180  50.126 -12.198  0.00  0.00    +0.000 C 
ATOM     15  O3  UNL     1     -10.925  51.001 -11.382  0.00  0.00    +0.000 OA
ATOM     16  C23 UNL     1     -11.865  48.865 -11.731  0.00  0.00    +0.000 C 
ATOM     17  C24 UNL     1     -12.983  48.486 -12.710  0.00  0.00    +0.000 C 
ATOM     18  C25 UNL     1     -12.460  48.233 -14.146  0.00  0.00    +0.000 C 
ATOM     19  C26 UNL     1     -11.846  51.355 -14.238  0.00  0.00    +0.000 C 
ATOM     20  O5  UNL     1     -10.071  48.057 -14.438  0.00  0.00    +0.000 OA
ATOM     21  C27 UNL     1      -7.762  53.007 -16.533  0.00  0.00    +0.000 C 
ENDROOT
BRANCH   1  22
ATOM     22  C7  UNL     1      -5.062  54.111 -14.735  0.00  0.00    +0.000 C 
ATOM     23  C8  UNL     1      -3.632  54.453 -15.205  0.00  0.00    +0.000 C 
BRANCH  22  30
ATOM     24  C1  UNL     1      -2.964  54.788 -10.053  0.00  0.00    +0.000 C 
ATOM     25  C2  UNL     1      -4.095  54.988 -11.024  0.00  0.00    +0.000 C 
ATOM     26  C3  UNL     1      -5.272  55.484 -10.599  0.00  0.00    +0.000 C 
ATOM     27  C4  UNL     1      -6.370  55.662 -11.567  0.00  0.00    +0.000 C 
ATOM     28  O1  UNL     1      -7.415  56.289 -11.249  0.00  0.00    +0.000 OA
ATOM     29  O2  UNL     1      -6.239  55.141 -12.856  0.00  0.00    +0.000 OA
ATOM     30  C5  UNL     1      -5.173  54.248 -13.184  0.00  0.00    +0.000 C 
ATOM     31  C6  UNL     1      -3.867  54.713 -12.496  0.00  0.00    +0.000 C 
BRANCH  26  32
ATOM     32  O6  UNL     1      -5.453  55.819  -9.255  0.00  0.00    +0.000 OA
ATOM     33  H38 UNL     1      -6.354  55.727  -8.801  0.00  0.00    +0.000 HD
ENDBRANCH  26  32
ENDBRANCH  22  30
ENDBRANCH   1  22
BRANCH  18  34
ATOM     34  O4  UNL     1     -13.419  48.634 -15.090  0.00  0.00    +0.000 OA
ATOM     35  H31 UNL     1     -13.698  47.817 -15.579  0.00  0.00    +0.000 HD
ENDBRANCH  18  34
TORSDOF 4
ENDMDL
MODEL 6
REMARK VINA RESULT:      -8.0      2.625      4.407
REMARK  Name = .\Withaferin A.pdb
REMARK  8 active torsions:
REMARK  status: ('A' for Active; 'I' for Inactive)
REMARK    1  A    between atoms: C1_1  and  C2_2
REMARK    2  A    between atoms: C3_3  and  O6_33
REMARK    3  A    between atoms: C5_7  and  C7_9
REMARK    4  A    between atoms: C7_9  and  C8_10
REMARK    5  A    between atoms: C7_9  and  C9_11
REMARK    6  A    between atoms: C13_15  and  C27_32
REMARK    7  A    between atoms: C21_23  and  C26_30
REMARK    8  A    between atoms: C25_28  and  O4_29
REMARK                            x       y       z     vdW  Elec       q    Type
REMARK                         _______ _______ _______ _____ _____    ______ ____
ROOT
ATOM      1  C9  UNL     1      -7.090  52.378 -15.520  0.00  0.00    +0.000 C 
ATOM      2  C10 UNL     1      -7.335  53.051 -16.880  0.00  0.00    +0.000 C 
ATOM      3  C11 UNL     1      -6.420  52.373 -17.890  0.00  0.00    +0.000 C 
ATOM      4  C12 UNL     1      -5.654  51.275 -17.138  0.00  0.00    +0.000 C 
ATOM      5  C13 UNL     1      -5.679  51.713 -15.655  0.00  0.00    +0.000 C 
ATOM      6  C14 UNL     1      -4.540  52.735 -15.401  0.00  0.00    +0.000 C 
ATOM      7  C15 UNL     1      -3.174  52.171 -15.767  0.00  0.00    +0.000 C 
ATOM      8  C16 UNL     1      -3.041  51.822 -17.273  0.00  0.00    +0.000 C 
ATOM      9  C17 UNL     1      -4.257  50.984 -17.794  0.00  0.00    +0.000 C 
ATOM     10  C18 UNL     1      -3.916  49.482 -17.881  0.00  0.00    +0.000 C 
ATOM     11  C19 UNL     1      -2.758  49.221 -18.858  0.00  0.00    +0.000 C 
ATOM     12  C20 UNL     1      -1.590  50.130 -18.763  0.00  0.00    +0.000 C 
ATOM     13  C21 UNL     1      -1.588  51.234 -17.648  0.00  0.00    +0.000 C 
ATOM     14  C22 UNL     1      -0.686  52.368 -18.125  0.00  0.00    +0.000 C 
ATOM     15  O3  UNL     1      -0.607  53.403 -17.477  0.00  0.00    +0.000 OA
ATOM     16  C23 UNL     1       0.137  52.227 -19.382  0.00  0.00    +0.000 C 
ATOM     17  C24 UNL     1       0.786  50.838 -19.428  0.00  0.00    +0.000 C 
ATOM     18  C25 UNL     1      -0.256  49.691 -19.415  0.00  0.00    +0.000 C 
ATOM     19  C26 UNL     1      -0.881  50.583 -16.425  0.00  0.00    +0.000 C 
ATOM     20  O5  UNL     1      -2.568  50.293 -19.763  0.00  0.00    +0.000 OA
ATOM     21  C27 UNL     1      -5.551  50.471 -14.733  0.00  0.00    +0.000 C 
ENDROOT
BRANCH   1  22
ATOM     22  C7  UNL     1      -7.339  53.363 -14.318  0.00  0.00    +0.000 C 
ATOM     23  C8  UNL     1      -6.234  53.272 -13.245  0.00  0.00    +0.000 C 
BRANCH  22  30
ATOM     24  C1  UNL     1     -10.909  50.498 -11.902  0.00  0.00    +0.000 C 
ATOM     25  C2  UNL     1     -10.231  51.819 -12.143  0.00  0.00    +0.000 C 
ATOM     26  C3  UNL     1     -10.752  52.950 -11.632  0.00  0.00    +0.000 C 
ATOM     27  C4  UNL     1     -10.076  54.236 -11.889  0.00  0.00    +0.000 C 
ATOM     28  O1  UNL     1     -10.426  55.281 -11.281  0.00  0.00    +0.000 OA
ATOM     29  O2  UNL     1      -9.027  54.286 -12.808  0.00  0.00    +0.000 OA
ATOM     30  C5  UNL     1      -8.746  53.179 -13.667  0.00  0.00    +0.000 C 
ATOM     31  C6  UNL     1      -8.912  51.853 -12.887  0.00  0.00    +0.000 C 
BRANCH  26  32
ATOM     32  O6  UNL     1     -11.923  52.908 -10.872  0.00  0.00    +0.000 OA
ATOM     33  H38 UNL     1     -12.140  52.121 -10.273  0.00  0.00    +0.000 HD
ENDBRANCH  26  32
ENDBRANCH  22  30
ENDBRANCH   1  22
BRANCH  18  34
ATOM     34  O4  UNL     1       0.253  48.579 -18.726  0.00  0.00    +0.000 OA
ATOM     35  H31 UNL     1       0.836  48.090 -19.363  0.00  0.00    +0.000 HD
ENDBRANCH  18  34
TORSDOF 4
ENDMDL
MODEL 7
REMARK VINA RESULT:      -7.9      3.551      8.393
REMARK  Name = .\Withaferin A.pdb
REMARK  8 active torsions:
REMARK  status: ('A' for Active; 'I' for Inactive)
REMARK    1  A    between atoms: C1_1  and  C2_2
REMARK    2  A    between atoms: C3_3  and  O6_33
REMARK    3  A    between atoms: C5_7  and  C7_9
REMARK    4  A    between atoms: C7_9  and  C8_10
REMARK    5  A    between atoms: C7_9  and  C9_11
REMARK    6  A    between atoms: C13_15  and  C27_32
REMARK    7  A    between atoms: C21_23  and  C26_30
REMARK    8  A    between atoms: C25_28  and  O4_29
REMARK                            x       y       z     vdW  Elec       q    Type
REMARK                         _______ _______ _______ _____ _____    ______ ____
ROOT
ATOM      1  C9  UNL     1      -5.443  52.070 -15.503  0.00  0.00    +0.000 C 
ATOM      2  C10 UNL     1      -4.924  50.758 -14.894  0.00  0.00    +0.000 C 
ATOM      3  C11 UNL     1      -6.053  49.740 -14.986  0.00  0.00    +0.000 C 
ATOM      4  C12 UNL     1      -7.233  50.438 -15.678  0.00  0.00    +0.000 C 
ATOM      5  C13 UNL     1      -7.003  51.949 -15.437  0.00  0.00    +0.000 C 
ATOM      6  C14 UNL     1      -7.547  52.335 -14.037  0.00  0.00    +0.000 C 
ATOM      7  C15 UNL     1      -9.021  51.989 -13.881  0.00  0.00    +0.000 C 
ATOM      8  C16 UNL     1      -9.306  50.469 -13.991  0.00  0.00    +0.000 C 
ATOM      9  C17 UNL     1      -8.612  49.827 -15.240  0.00  0.00    +0.000 C 
ATOM     10  C18 UNL     1      -9.603  49.637 -16.406  0.00  0.00    +0.000 C 
ATOM     11  C19 UNL     1     -10.757  48.698 -16.021  0.00  0.00    +0.000 C 
ATOM     12  C20 UNL     1     -11.379  48.919 -14.693  0.00  0.00    +0.000 C 
ATOM     13  C21 UNL     1     -10.870  50.116 -13.816  0.00  0.00    +0.000 C 
ATOM     14  C22 UNL     1     -11.155  49.773 -12.357  0.00  0.00    +0.000 C 
ATOM     15  O3  UNL     1     -10.748  50.503 -11.465  0.00  0.00    +0.000 OA
ATOM     16  C23 UNL     1     -11.958  48.548 -11.993  0.00  0.00    +0.000 C 
ATOM     17  C24 UNL     1     -13.171  48.423 -12.924  0.00  0.00    +0.000 C 
ATOM     18  C25 UNL     1     -12.769  48.296 -14.415  0.00  0.00    +0.000 C 
ATOM     19  C26 UNL     1     -11.790  51.315 -14.183  0.00  0.00    +0.000 C 
ATOM     20  O5  UNL     1     -10.440  47.890 -14.902  0.00  0.00    +0.000 OA
ATOM     21  C27 UNL     1      -7.681  52.774 -16.564  0.00  0.00    +0.000 C 
ENDROOT
BRANCH   1  22
ATOM     22  C7  UNL     1      -4.765  53.333 -14.854  0.00  0.00    +0.000 C 
ATOM     23  C8  UNL     1      -4.520  54.459 -15.880  0.00  0.00    +0.000 C 
BRANCH  22  30
ATOM     24  C1  UNL     1       0.364  52.651 -14.710  0.00  0.00    +0.000 C 
ATOM     25  C2  UNL     1      -0.919  53.086 -14.058  0.00  0.00    +0.000 C 
ATOM     26  C3  UNL     1      -0.946  53.377 -12.743  0.00  0.00    +0.000 C 
ATOM     27  C4  UNL     1      -2.219  53.791 -12.122  0.00  0.00    +0.000 C 
ATOM     28  O1  UNL     1      -2.245  54.244 -10.949  0.00  0.00    +0.000 OA
ATOM     29  O2  UNL     1      -3.403  53.691 -12.855  0.00  0.00    +0.000 OA
ATOM     30  C5  UNL     1      -3.443  52.988 -14.099  0.00  0.00    +0.000 C 
ATOM     31  C6  UNL     1      -2.158  53.281 -14.909  0.00  0.00    +0.000 C 
BRANCH  26  32
ATOM     32  O6  UNL     1       0.216  53.280 -11.975  0.00  0.00    +0.000 OA
ATOM     33  H38 UNL     1       0.564  54.063 -11.436  0.00  0.00    +0.000 HD
ENDBRANCH  26  32
ENDBRANCH  22  30
ENDBRANCH   1  22
BRANCH  18  34
ATOM     34  O4  UNL     1     -13.727  48.918 -15.231  0.00  0.00    +0.000 OA
ATOM     35  H31 UNL     1     -14.524  48.326 -15.239  0.00  0.00    +0.000 HD
ENDBRANCH  18  34
TORSDOF 4
ENDMDL
MODEL 8
REMARK VINA RESULT:      -7.7      2.195      3.280
REMARK  Name = .\Withaferin A.pdb
REMARK  8 active torsions:
REMARK  status: ('A' for Active; 'I' for Inactive)
REMARK    1  A    between atoms: C1_1  and  C2_2
REMARK    2  A    between atoms: C3_3  and  O6_33
REMARK    3  A    between atoms: C5_7  and  C7_9
REMARK    4  A    between atoms: C7_9  and  C8_10
REMARK    5  A    between atoms: C7_9  and  C9_11
REMARK    6  A    between atoms: C13_15  and  C27_32
REMARK    7  A    between atoms: C21_23  and  C26_30
REMARK    8  A    between atoms: C25_28  and  O4_29
REMARK                            x       y       z     vdW  Elec       q    Type
REMARK                         _______ _______ _______ _____ _____    ______ ____
ROOT
ATOM      1  C9  UNL     1      -6.975  51.090 -15.349  0.00  0.00    +0.000 C 
ATOM      2  C10 UNL     1      -5.905  51.181 -14.249  0.00  0.00    +0.000 C 
ATOM      3  C11 UNL     1      -4.657  51.781 -14.883  0.00  0.00    +0.000 C 
ATOM      4  C12 UNL     1      -4.996  52.078 -16.351  0.00  0.00    +0.000 C 
ATOM      5  C13 UNL     1      -6.170  51.130 -16.691  0.00  0.00    +0.000 C 
ATOM      6  C14 UNL     1      -5.611  49.731 -17.062  0.00  0.00    +0.000 C 
ATOM      7  C15 UNL     1      -4.627  49.799 -18.223  0.00  0.00    +0.000 C 
ATOM      8  C16 UNL     1      -3.363  50.639 -17.903  0.00  0.00    +0.000 C 
ATOM      9  C17 UNL     1      -3.721  52.024 -17.267  0.00  0.00    +0.000 C 
ATOM     10  C18 UNL     1      -3.659  53.161 -18.308  0.00  0.00    +0.000 C 
ATOM     11  C19 UNL     1      -2.249  53.307 -18.903  0.00  0.00    +0.000 C 
ATOM     12  C20 UNL     1      -1.559  52.054 -19.293  0.00  0.00    +0.000 C 
ATOM     13  C21 UNL     1      -2.328  50.695 -19.137  0.00  0.00    +0.000 C 
ATOM     14  C22 UNL     1      -1.285  49.592 -18.979  0.00  0.00    +0.000 C 
ATOM     15  O3  UNL     1      -1.636  48.447 -18.728  0.00  0.00    +0.000 OA
ATOM     16  C23 UNL     1       0.185  49.886 -19.149  0.00  0.00    +0.000 C 
ATOM     17  C24 UNL     1       0.398  50.791 -20.370  0.00  0.00    +0.000 C 
ATOM     18  C25 UNL     1      -0.342  52.146 -20.245  0.00  0.00    +0.000 C 
ATOM     19  C26 UNL     1      -3.027  50.457 -20.506  0.00  0.00    +0.000 C 
ATOM     20  O5  UNL     1      -1.258  52.712 -18.085  0.00  0.00    +0.000 OA
ATOM     21  C27 UNL     1      -7.021  51.732 -17.841  0.00  0.00    +0.000 C 
ENDROOT
BRANCH   1  22
ATOM     22  C7  UNL     1      -7.970  49.894 -15.110  0.00  0.00    +0.000 C 
ATOM     23  C8  UNL     1      -8.961  49.713 -16.279  0.00  0.00    +0.000 C 
BRANCH  22  30
ATOM     24  C1  UNL     1     -10.827  52.534 -11.696  0.00  0.00    +0.000 C 
ATOM     25  C2  UNL     1     -10.455  51.245 -12.374  0.00  0.00    +0.000 C 
ATOM     26  C3  UNL     1     -10.937  50.074 -11.916  0.00  0.00    +0.000 C 
ATOM     27  C4  UNL     1     -10.550  48.821 -12.591  0.00  0.00    +0.000 C 
ATOM     28  O1  UNL     1     -11.120  47.735 -12.309  0.00  0.00    +0.000 OA
ATOM     29  O2  UNL     1      -9.550  48.848 -13.565  0.00  0.00    +0.000 OA
ATOM     30  C5  UNL     1      -8.740  50.010 -13.757  0.00  0.00    +0.000 C 
ATOM     31  C6  UNL     1      -9.609  51.283 -13.631  0.00  0.00    +0.000 C 
BRANCH  26  32
ATOM     32  O6  UNL     1     -11.787  50.047 -10.808  0.00  0.00    +0.000 OA
ATOM     33  H38 UNL     1     -12.365  49.241 -10.601  0.00  0.00    +0.000 HD
ENDBRANCH  26  32
ENDBRANCH  22  30
ENDBRANCH   1  22
BRANCH  18  34
ATOM     34  O4  UNL     1      -0.773  52.582 -21.508  0.00  0.00    +0.000 OA
ATOM     35  H31 UNL     1      -1.000  53.544 -21.416  0.00  0.00    +0.000 HD
ENDBRANCH  18  34
TORSDOF 4
ENDMDL
MODEL 9
REMARK VINA RESULT:      -7.4      3.160      8.121
REMARK  Name = .\Withaferin A.pdb
REMARK  8 active torsions:
REMARK  status: ('A' for Active; 'I' for Inactive)
REMARK    1  A    between atoms: C1_1  and  C2_2
REMARK    2  A    between atoms: C3_3  and  O6_33
REMARK    3  A    between atoms: C5_7  and  C7_9
REMARK    4  A    between atoms: C7_9  and  C8_10
REMARK    5  A    between atoms: C7_9  and  C9_11
REMARK    6  A    between atoms: C13_15  and  C27_32
REMARK    7  A    between atoms: C21_23  and  C26_30
REMARK    8  A    between atoms: C25_28  and  O4_29
REMARK                            x       y       z     vdW  Elec       q    Type
REMARK                         _______ _______ _______ _____ _____    ______ ____
ROOT
ATOM      1  C9  UNL     1      -8.347  51.771 -14.176  0.00  0.00    +0.000 C 
ATOM      2  C10 UNL     1      -9.480  52.772 -14.451  0.00  0.00    +0.000 C 
ATOM      3  C11 UNL     1     -10.789  52.083 -14.091  0.00  0.00    +0.000 C 
ATOM      4  C12 UNL     1     -10.432  50.683 -13.570  0.00  0.00    +0.000 C 
ATOM      5  C13 UNL     1      -9.046  50.369 -14.181  0.00  0.00    +0.000 C 
ATOM      6  C14 UNL     1      -9.229  49.828 -15.623  0.00  0.00    +0.000 C 
ATOM      7  C15 UNL     1     -10.120  48.594 -15.661  0.00  0.00    +0.000 C 
ATOM      8  C16 UNL     1     -11.566  48.870 -15.174  0.00  0.00    +0.000 C 
ATOM      9  C17 UNL     1     -11.593  49.654 -13.819  0.00  0.00    +0.000 C 
ATOM     10  C18 UNL     1     -11.853  48.715 -12.623  0.00  0.00    +0.000 C 
ATOM     11  C19 UNL     1     -13.214  48.009 -12.743  0.00  0.00    +0.000 C 
ATOM     12  C20 UNL     1     -13.557  47.450 -14.073  0.00  0.00    +0.000 C 
ATOM     13  C21 UNL     1     -12.500  47.556 -15.227  0.00  0.00    +0.000 C 
ATOM     14  C22 UNL     1     -13.258  47.523 -16.551  0.00  0.00    +0.000 C 
ATOM     15  O3  UNL     1     -12.662  47.704 -17.604  0.00  0.00    +0.000 OA
ATOM     16  C23 UNL     1     -14.741  47.246 -16.587  0.00  0.00    +0.000 C 
ATOM     17  C24 UNL     1     -15.080  46.095 -15.632  0.00  0.00    +0.000 C 
ATOM     18  C25 UNL     1     -14.695  46.403 -14.164  0.00  0.00    +0.000 C 
ATOM     19  C26 UNL     1     -11.673  46.241 -15.151  0.00  0.00    +0.000 C 
ATOM     20  O5  UNL     1     -14.087  48.679 -13.634  0.00  0.00    +0.000 OA
ATOM     21  C27 UNL     1      -8.287  49.358 -13.280  0.00  0.00    +0.000 C 
ENDROOT
BRANCH   1  22
ATOM     22  C7  UNL     1      -7.115  51.994 -15.129  0.00  0.00    +0.000 C 
ATOM     23  C8  UNL     1      -6.113  53.021 -14.561  0.00  0.00    +0.000 C 
BRANCH  22  30
ATOM     24  C1  UNL     1      -7.335  55.350 -19.062  0.00  0.00    +0.000 C 
ATOM     25  C2  UNL     1      -7.222  53.943 -18.545  0.00  0.00    +0.000 C 
ATOM     26  C3  UNL     1      -7.317  52.901 -19.391  0.00  0.00    +0.000 C 
ATOM     27  C4  UNL     1      -7.214  51.528 -18.860  0.00  0.00    +0.000 C 
ATOM     28  O1  UNL     1      -7.114  50.542 -19.637  0.00  0.00    +0.000 OA
ATOM     29  O2  UNL     1      -7.211  51.327 -17.480  0.00  0.00    +0.000 OA
ATOM     30  C5  UNL     1      -7.536  52.389 -16.579  0.00  0.00    +0.000 C 
ATOM     31  C6  UNL     1      -6.910  53.712 -17.080  0.00  0.00    +0.000 C 
BRANCH  26  32
ATOM     32  O6  UNL     1      -7.519  53.117 -20.756  0.00  0.00    +0.000 OA
ATOM     33  H38 UNL     1      -8.133  52.525 -21.304  0.00  0.00    +0.000 HD
ENDBRANCH  26  32
ENDBRANCH  22  30
ENDBRANCH   1  22
BRANCH  18  34
ATOM     34  O4  UNL     1     -14.295  45.228 -13.508  0.00  0.00    +0.000 OA
ATOM     35  H31 UNL     1     -13.588  44.814 -14.069  0.00  0.00    +0.000 HD
ENDBRANCH  18  34
TORSDOF 4
ENDMDL
