MODEL 1
REMARK VINA RESULT:      -6.8      0.000      0.000
REMARK  Name = .\Withaferin A.pdb
REMARK  8 active torsions:
REMARK  status: ('A' for Active; 'I' for Inactive)
REMARK    1  A    between atoms: C1_1  and  C2_2
REMARK    2  A    between atoms: C3_3  and  O6_33
REMARK    3  A    between atoms: C5_7  and  C7_9
REMARK    4  A    between atoms: C7_9  and  C8_10
REMARK    5  A    between atoms: C7_9  and  C9_11
REMARK    6  A    between atoms: C13_15  and  C27_32
REMARK    7  A    between atoms: C21_23  and  C26_30
REMARK    8  A    between atoms: C25_28  and  O4_29
REMARK                            x       y       z     vdW  Elec       q    Type
REMARK                         _______ _______ _______ _____ _____    ______ ____
ROOT
ATOM      1  C9  UNL     1       0.173  47.938   6.027  0.00  0.00    +0.000 C 
ATOM      2  C10 UNL     1      -0.616  49.123   5.449  0.00  0.00    +0.000 C 
ATOM      3  C11 UNL     1      -0.507  49.041   3.932  0.00  0.00    +0.000 C 
ATOM      4  C12 UNL     1       0.320  47.788   3.608  0.00  0.00    +0.000 C 
ATOM      5  C13 UNL     1       1.155  47.518   4.882  0.00  0.00    +0.000 C 
ATOM      6  C14 UNL     1       2.425  48.408   4.863  0.00  0.00    +0.000 C 
ATOM      7  C15 UNL     1       3.266  48.176   3.616  0.00  0.00    +0.000 C 
ATOM      8  C16 UNL     1       2.526  48.545   2.303  0.00  0.00    +0.000 C 
ATOM      9  C17 UNL     1       1.087  47.932   2.245  0.00  0.00    +0.000 C 
ATOM     10  C18 UNL     1       1.047  46.658   1.376  0.00  0.00    +0.000 C 
ATOM     11  C19 UNL     1       1.453  46.952  -0.078  0.00  0.00    +0.000 C 
ATOM     12  C20 UNL     1       2.644  47.814  -0.274  0.00  0.00    +0.000 C 
ATOM     13  C21 UNL     1       3.432  48.303   0.992  0.00  0.00    +0.000 C 
ATOM     14  C22 UNL     1       4.145  49.600   0.617  0.00  0.00    +0.000 C 
ATOM     15  O3  UNL     1       4.740  50.241   1.472  0.00  0.00    +0.000 OA
ATOM     16  C23 UNL     1       4.147  50.098  -0.807  0.00  0.00    +0.000 C 
ATOM     17  C24 UNL     1       4.406  48.931  -1.768  0.00  0.00    +0.000 C 
ATOM     18  C25 UNL     1       3.333  47.819  -1.660  0.00  0.00    +0.000 C 
ATOM     19  C26 UNL     1       4.538  47.235   1.227  0.00  0.00    +0.000 C 
ATOM     20  O5  UNL     1       1.338  48.326  -0.399  0.00  0.00    +0.000 OA
ATOM     21  C27 UNL     1       1.512  46.010   4.971  0.00  0.00    +0.000 C 
ENDROOT
BRANCH   1  22
ATOM     22  C7  UNL     1       0.775  48.263   7.445  0.00  0.00    +0.000 C 
ATOM     23  C8  UNL     1       0.775  49.776   7.749  0.00  0.00    +0.000 C 
BRANCH  22  30
ATOM     24  C1  UNL     1       5.834  48.767   8.417  0.00  0.00    +0.000 C 
ATOM     25  C2  UNL     1       4.549  47.993   8.526  0.00  0.00    +0.000 C 
ATOM     26  C3  UNL     1       4.557  46.729   8.989  0.00  0.00    +0.000 C 
ATOM     27  C4  UNL     1       3.286  45.985   9.076  0.00  0.00    +0.000 C 
ATOM     28  O1  UNL     1       3.227  44.877   9.671  0.00  0.00    +0.000 OA
ATOM     29  O2  UNL     1       2.134  46.528   8.505  0.00  0.00    +0.000 OA
ATOM     30  C5  UNL     1       2.205  47.668   7.645  0.00  0.00    +0.000 C 
ATOM     31  C6  UNL     1       3.238  48.678   8.196  0.00  0.00    +0.000 C 
BRANCH  26  32
ATOM     32  O6  UNL     1       5.756  46.127   9.375  0.00  0.00    +0.000 OA
ATOM     33  H38 UNL     1       5.784  45.403  10.083  0.00  0.00    +0.000 HD
ENDBRANCH  26  32
ENDBRANCH  22  30
ENDBRANCH   1  22
BRANCH  18  34
ATOM     34  O4  UNL     1       3.910  46.561  -1.896  0.00  0.00    +0.000 OA
ATOM     35  H31 UNL     1       4.328  46.274  -1.042  0.00  0.00    +0.000 HD
ENDBRANCH  18  34
TORSDOF 4
ENDMDL
MODEL 2
REMARK VINA RESULT:      -6.8      2.098      7.683
REMARK  Name = .\Withaferin A.pdb
REMARK  8 active torsions:
REMARK  status: ('A' for Active; 'I' for Inactive)
REMARK    1  A    between atoms: C1_1  and  C2_2
REMARK    2  A    between atoms: C3_3  and  O6_33
REMARK    3  A    between atoms: C5_7  and  C7_9
REMARK    4  A    between atoms: C7_9  and  C8_10
REMARK    5  A    between atoms: C7_9  and  C9_11
REMARK    6  A    between atoms: C13_15  and  C27_32
REMARK    7  A    between atoms: C21_23  and  C26_30
REMARK    8  A    between atoms: C25_28  and  O4_29
REMARK                            x       y       z     vdW  Elec       q    Type
REMARK                         _______ _______ _______ _____ _____    ______ ____
ROOT
ATOM      1  C9  UNL     1       0.244  47.044   3.157  0.00  0.00    +0.000 C 
ATOM      2  C10 UNL     1       0.895  45.834   3.845  0.00  0.00    +0.000 C 
ATOM      3  C11 UNL     1       1.262  46.262   5.259  0.00  0.00    +0.000 C 
ATOM      4  C12 UNL     1       0.799  47.717   5.423  0.00  0.00    +0.000 C 
ATOM      5  C13 UNL     1       0.731  48.281   3.985  0.00  0.00    +0.000 C 
ATOM      6  C14 UNL     1       2.146  48.740   3.545  0.00  0.00    +0.000 C 
ATOM      7  C15 UNL     1       2.732  49.775   4.496  0.00  0.00    +0.000 C 
ATOM      8  C16 UNL     1       2.940  49.233   5.934  0.00  0.00    +0.000 C 
ATOM      9  C17 UNL     1       1.671  48.492   6.475  0.00  0.00    +0.000 C 
ATOM     10  C18 UNL     1       0.847  49.391   7.419  0.00  0.00    +0.000 C 
ATOM     11  C19 UNL     1       1.662  49.813   8.653  0.00  0.00    +0.000 C 
ATOM     12  C20 UNL     1       3.054  50.262   8.408  0.00  0.00    +0.000 C 
ATOM     13  C21 UNL     1       3.568  50.337   6.927  0.00  0.00    +0.000 C 
ATOM     14  C22 UNL     1       5.086  50.189   6.959  0.00  0.00    +0.000 C 
ATOM     15  O3  UNL     1       5.716  50.102   5.914  0.00  0.00    +0.000 OA
ATOM     16  C23 UNL     1       5.835  50.169   8.270  0.00  0.00    +0.000 C 
ATOM     17  C24 UNL     1       5.283  51.254   9.203  0.00  0.00    +0.000 C 
ATOM     18  C25 UNL     1       3.778  51.063   9.517  0.00  0.00    +0.000 C 
ATOM     19  C26 UNL     1       3.269  51.790   6.461  0.00  0.00    +0.000 C 
ATOM     20  O5  UNL     1       2.772  48.964   8.877  0.00  0.00    +0.000 OA
ATOM     21  C27 UNL     1      -0.296  49.443   3.919  0.00  0.00    +0.000 C 
ENDROOT
BRANCH   1  22
ATOM     22  C7  UNL     1       0.487  47.043   1.602  0.00  0.00    +0.000 C 
ATOM     23  C8  UNL     1       0.417  45.625   0.998  0.00  0.00    +0.000 C 
BRANCH  22  30
ATOM     24  C1  UNL     1       5.387  46.903  -0.059  0.00  0.00    +0.000 C 
ATOM     25  C2  UNL     1       4.043  47.575   0.005  0.00  0.00    +0.000 C 
ATOM     26  C3  UNL     1       3.889  48.827  -0.468  0.00  0.00    +0.000 C 
ATOM     27  C4  UNL     1       2.564  49.470  -0.386  0.00  0.00    +0.000 C 
ATOM     28  O1  UNL     1       2.338  50.558  -0.977  0.00  0.00    +0.000 OA
ATOM     29  O2  UNL     1       1.548  48.854   0.345  0.00  0.00    +0.000 OA
ATOM     30  C5  UNL     1       1.824  47.741   1.199  0.00  0.00    +0.000 C 
ATOM     31  C6  UNL     1       2.848  46.800   0.520  0.00  0.00    +0.000 C 
BRANCH  26  32
ATOM     32  O6  UNL     1       4.973  49.510  -1.023  0.00  0.00    +0.000 OA
ATOM     33  H38 UNL     1       5.693  49.028  -1.547  0.00  0.00    +0.000 HD
ENDBRANCH  26  32
ENDBRANCH  22  30
ENDBRANCH   1  22
BRANCH  18  34
ATOM     34  O4  UNL     1       3.151  52.310   9.672  0.00  0.00    +0.000 OA
ATOM     35  H31 UNL     1       2.189  52.173   9.470  0.00  0.00    +0.000 HD
ENDBRANCH  18  34
TORSDOF 4
ENDMDL
MODEL 3
REMARK VINA RESULT:      -6.7      1.526      2.145
REMARK  Name = .\Withaferin A.pdb
REMARK  8 active torsions:
REMARK  status: ('A' for Active; 'I' for Inactive)
REMARK    1  A    between atoms: C1_1  and  C2_2
REMARK    2  A    between atoms: C3_3  and  O6_33
REMARK    3  A    between atoms: C5_7  and  C7_9
REMARK    4  A    between atoms: C7_9  and  C8_10
REMARK    5  A    between atoms: C7_9  and  C9_11
REMARK    6  A    between atoms: C13_15  and  C27_32
REMARK    7  A    between atoms: C21_23  and  C26_30
REMARK    8  A    between atoms: C25_28  and  O4_29
REMARK                            x       y       z     vdW  Elec       q    Type
REMARK                         _______ _______ _______ _____ _____    ______ ____
ROOT
ATOM      1  C9  UNL     1      -0.135  47.667   4.392  0.00  0.00    +0.000 C 
ATOM      2  C10 UNL     1      -0.647  48.994   3.811  0.00  0.00    +0.000 C 
ATOM      3  C11 UNL     1      -0.149  49.080   2.375  0.00  0.00    +0.000 C 
ATOM      4  C12 UNL     1       0.632  47.788   2.091  0.00  0.00    +0.000 C 
ATOM      5  C13 UNL     1       1.077  47.276   3.481  0.00  0.00    +0.000 C 
ATOM      6  C14 UNL     1       2.374  48.011   3.910  0.00  0.00    +0.000 C 
ATOM      7  C15 UNL     1       3.493  47.834   2.892  0.00  0.00    +0.000 C 
ATOM      8  C16 UNL     1       3.157  48.438   1.504  0.00  0.00    +0.000 C 
ATOM      9  C17 UNL     1       1.740  48.004   0.999  0.00  0.00    +0.000 C 
ATOM     10  C18 UNL     1       1.829  46.856  -0.026  0.00  0.00    +0.000 C 
ATOM     11  C19 UNL     1       2.626  47.271  -1.274  0.00  0.00    +0.000 C 
ATOM     12  C20 UNL     1       3.891  48.009  -1.039  0.00  0.00    +0.000 C 
ATOM     13  C21 UNL     1       4.354  48.252   0.440  0.00  0.00    +0.000 C 
ATOM     14  C22 UNL     1       5.241  49.493   0.447  0.00  0.00    +0.000 C 
ATOM     15  O3  UNL     1       5.639  49.957   1.507  0.00  0.00    +0.000 OA
ATOM     16  C23 UNL     1       5.658  50.153  -0.844  0.00  0.00    +0.000 C 
ATOM     17  C24 UNL     1       6.067  49.087  -1.868  0.00  0.00    +0.000 C 
ATOM     18  C25 UNL     1       4.919  48.100  -2.194  0.00  0.00    +0.000 C 
ATOM     19  C26 UNL     1       5.270  47.044   0.788  0.00  0.00    +0.000 C 
ATOM     20  O5  UNL     1       2.709  48.678  -1.412  0.00  0.00    +0.000 OA
ATOM     21  C27 UNL     1       1.277  45.737   3.438  0.00  0.00    +0.000 C 
ENDROOT
BRANCH   1  22
ATOM     22  C7  UNL     1       0.097  47.750   5.947  0.00  0.00    +0.000 C 
ATOM     23  C8  UNL     1      -1.105  48.375   6.686  0.00  0.00    +0.000 C 
BRANCH  22  30
ATOM     24  C1  UNL     1       2.743  52.055   7.064  0.00  0.00    +0.000 C 
ATOM     25  C2  UNL     1       2.499  50.582   7.246  0.00  0.00    +0.000 C 
ATOM     26  C3  UNL     1       3.381  49.829   7.929  0.00  0.00    +0.000 C 
ATOM     27  C4  UNL     1       3.126  48.384   8.086  0.00  0.00    +0.000 C 
ATOM     28  O1  UNL     1       3.825  47.687   8.867  0.00  0.00    +0.000 OA
ATOM     29  O2  UNL     1       2.086  47.791   7.370  0.00  0.00    +0.000 OA
ATOM     30  C5  UNL     1       1.415  48.497   6.323  0.00  0.00    +0.000 C 
ATOM     31  C6  UNL     1       1.209  49.974   6.733  0.00  0.00    +0.000 C 
BRANCH  26  32
ATOM     32  O6  UNL     1       4.528  50.407   8.477  0.00  0.00    +0.000 OA
ATOM     33  H38 UNL     1       4.607  50.596   9.469  0.00  0.00    +0.000 HD
ENDBRANCH  26  32
ENDBRANCH  22  30
ENDBRANCH   1  22
BRANCH  18  34
ATOM     34  O4  UNL     1       5.436  46.821  -2.455  0.00  0.00    +0.000 OA
ATOM     35  H31 UNL     1       6.393  46.943  -2.690  0.00  0.00    +0.000 HD
ENDBRANCH  18  34
TORSDOF 4
ENDMDL
MODEL 4
REMARK VINA RESULT:      -5.9      1.927      8.535
REMARK  Name = .\Withaferin A.pdb
REMARK  8 active torsions:
REMARK  status: ('A' for Active; 'I' for Inactive)
REMARK    1  A    between atoms: C1_1  and  C2_2
REMARK    2  A    between atoms: C3_3  and  O6_33
REMARK    3  A    between atoms: C5_7  and  C7_9
REMARK    4  A    between atoms: C7_9  and  C8_10
REMARK    5  A    between atoms: C7_9  and  C9_11
REMARK    6  A    between atoms: C13_15  and  C27_32
REMARK    7  A    between atoms: C21_23  and  C26_30
REMARK    8  A    between atoms: C25_28  and  O4_29
REMARK                            x       y       z     vdW  Elec       q    Type
REMARK                         _______ _______ _______ _____ _____    ______ ____
ROOT
ATOM      1  C9  UNL     1       2.031  48.242   1.043  0.00  0.00    +0.000 C 
ATOM      2  C10 UNL     1       3.139  47.186   0.910  0.00  0.00    +0.000 C 
ATOM      3  C11 UNL     1       3.101  46.331   2.170  0.00  0.00    +0.000 C 
ATOM      4  C12 UNL     1       1.949  46.858   3.037  0.00  0.00    +0.000 C 
ATOM      5  C13 UNL     1       1.739  48.321   2.580  0.00  0.00    +0.000 C 
ATOM      6  C14 UNL     1       2.757  49.238   3.307  0.00  0.00    +0.000 C 
ATOM      7  C15 UNL     1       2.641  49.131   4.822  0.00  0.00    +0.000 C 
ATOM      8  C16 UNL     1       2.960  47.712   5.359  0.00  0.00    +0.000 C 
ATOM      9  C17 UNL     1       2.201  46.596   4.565  0.00  0.00    +0.000 C 
ATOM     10  C18 UNL     1       0.949  46.110   5.323  0.00  0.00    +0.000 C 
ATOM     11  C19 UNL     1       1.314  45.500   6.687  0.00  0.00    +0.000 C 
ATOM     12  C20 UNL     1       2.300  46.246   7.506  0.00  0.00    +0.000 C 
ATOM     13  C21 UNL     1       2.841  47.616   6.964  0.00  0.00    +0.000 C 
ATOM     14  C22 UNL     1       4.213  47.849   7.592  0.00  0.00    +0.000 C 
ATOM     15  O3  UNL     1       4.894  48.802   7.239  0.00  0.00    +0.000 OA
ATOM     16  C23 UNL     1       4.739  46.929   8.666  0.00  0.00    +0.000 C 
ATOM     17  C24 UNL     1       3.626  46.611   9.672  0.00  0.00    +0.000 C 
ATOM     18  C25 UNL     1       2.407  45.918   9.015  0.00  0.00    +0.000 C 
ATOM     19  C26 UNL     1       1.890  48.696   7.552  0.00  0.00    +0.000 C 
ATOM     20  O5  UNL     1       2.676  45.116   6.754  0.00  0.00    +0.000 OA
ATOM     21  C27 UNL     1       0.275  48.757   2.854  0.00  0.00    +0.000 C 
ENDROOT
BRANCH   1  22
ATOM     22  C7  UNL     1       2.386  49.573   0.282  0.00  0.00    +0.000 C 
ATOM     23  C8  UNL     1       1.164  50.178  -0.442  0.00  0.00    +0.000 C 
BRANCH  22  30
ATOM     24  C1  UNL     1       4.954  46.925  -3.349  0.00  0.00    +0.000 C 
ATOM     25  C2  UNL     1       4.509  48.229  -2.746  0.00  0.00    +0.000 C 
ATOM     26  C3  UNL     1       5.030  49.390  -3.184  0.00  0.00    +0.000 C 
ATOM     27  C4  UNL     1       4.586  50.656  -2.571  0.00  0.00    +0.000 C 
ATOM     28  O1  UNL     1       4.909  51.764  -3.074  0.00  0.00    +0.000 OA
ATOM     29  O2  UNL     1       3.784  50.621  -1.429  0.00  0.00    +0.000 OA
ATOM     30  C5  UNL     1       3.577  49.401  -0.713  0.00  0.00    +0.000 C 
ATOM     31  C6  UNL     1       3.405  48.229  -1.708  0.00  0.00    +0.000 C 
BRANCH  26  32
ATOM     32  O6  UNL     1       5.986  49.395  -4.202  0.00  0.00    +0.000 OA
ATOM     33  H38 UNL     1       5.873  49.961  -5.035  0.00  0.00    +0.000 HD
ENDBRANCH  26  32
ENDBRANCH  22  30
ENDBRANCH   1  22
BRANCH  18  34
ATOM     34  O4  UNL     1       1.221  46.306   9.659  0.00  0.00    +0.000 OA
ATOM     35  H31 UNL     1       1.253  45.921  10.573  0.00  0.00    +0.000 HD
ENDBRANCH  18  34
TORSDOF 4
ENDMDL
MODEL 5
REMARK VINA RESULT:      -5.5      1.082      1.773
REMARK  Name = .\Withaferin A.pdb
REMARK  8 active torsions:
REMARK  status: ('A' for Active; 'I' for Inactive)
REMARK    1  A    between atoms: C1_1  and  C2_2
REMARK    2  A    between atoms: C3_3  and  O6_33
REMARK    3  A    between atoms: C5_7  and  C7_9
REMARK    4  A    between atoms: C7_9  and  C8_10
REMARK    5  A    between atoms: C7_9  and  C9_11
REMARK    6  A    between atoms: C13_15  and  C27_32
REMARK    7  A    between atoms: C21_23  and  C26_30
REMARK    8  A    between atoms: C25_28  and  O4_29
REMARK                            x       y       z     vdW  Elec       q    Type
REMARK                         _______ _______ _______ _____ _____    ______ ____
ROOT
ATOM      1  C9  UNL     1       0.251  48.524   5.551  0.00  0.00    +0.000 C 
ATOM      2  C10 UNL     1      -0.776  49.316   4.727  0.00  0.00    +0.000 C 
ATOM      3  C11 UNL     1      -0.597  48.909   3.271  0.00  0.00    +0.000 C 
ATOM      4  C12 UNL     1       0.515  47.850   3.233  0.00  0.00    +0.000 C 
ATOM      5  C13 UNL     1       1.344  48.094   4.515  0.00  0.00    +0.000 C 
ATOM      6  C14 UNL     1       2.366  49.232   4.259  0.00  0.00    +0.000 C 
ATOM      7  C15 UNL     1       3.282  48.923   3.083  0.00  0.00    +0.000 C 
ATOM      8  C16 UNL     1       2.523  48.786   1.737  0.00  0.00    +0.000 C 
ATOM      9  C17 UNL     1       1.274  47.849   1.857  0.00  0.00    +0.000 C 
ATOM     10  C18 UNL     1       1.568  46.436   1.315  0.00  0.00    +0.000 C 
ATOM     11  C19 UNL     1       1.944  46.469  -0.175  0.00  0.00    +0.000 C 
ATOM     12  C20 UNL     1       2.901  47.520  -0.596  0.00  0.00    +0.000 C 
ATOM     13  C21 UNL     1       3.506  48.467   0.500  0.00  0.00    +0.000 C 
ATOM     14  C22 UNL     1       3.902  49.771  -0.186  0.00  0.00    +0.000 C 
ATOM     15  O3  UNL     1       4.297  50.718   0.480  0.00  0.00    +0.000 OA
ATOM     16  C23 UNL     1       3.837  49.906  -1.687  0.00  0.00    +0.000 C 
ATOM     17  C24 UNL     1       4.399  48.643  -2.351  0.00  0.00    +0.000 C 
ATOM     18  C25 UNL     1       3.618  47.364  -1.960  0.00  0.00    +0.000 C 
ATOM     19  C26 UNL     1       4.825  47.780   0.956  0.00  0.00    +0.000 C 
ATOM     20  O5  UNL     1       1.517  47.661  -0.809  0.00  0.00    +0.000 OA
ATOM     21  C27 UNL     1       2.046  46.780   4.950  0.00  0.00    +0.000 C 
ENDROOT
BRANCH   1  22
ATOM     22  C7  UNL     1       0.708  49.307   6.838  0.00  0.00    +0.000 C 
ATOM     23  C8  UNL     1       1.585  50.531   6.499  0.00  0.00    +0.000 C 
BRANCH  22  30
ATOM     24  C1  UNL     1       1.030  44.981   9.660  0.00  0.00    +0.000 C 
ATOM     25  C2  UNL     1       1.683  46.088   8.880  0.00  0.00    +0.000 C 
ATOM     26  C3  UNL     1       3.020  46.244   8.915  0.00  0.00    +0.000 C 
ATOM     27  C4  UNL     1       3.637  47.345   8.151  0.00  0.00    +0.000 C 
ATOM     28  O1  UNL     1       4.887  47.411   8.011  0.00  0.00    +0.000 OA
ATOM     29  O2  UNL     1       2.822  48.313   7.564  0.00  0.00    +0.000 OA
ATOM     30  C5  UNL     1       1.429  48.392   7.877  0.00  0.00    +0.000 C 
ATOM     31  C6  UNL     1       0.833  46.968   7.986  0.00  0.00    +0.000 C 
BRANCH  26  32
ATOM     32  O6  UNL     1       3.812  45.378   9.672  0.00  0.00    +0.000 OA
ATOM     33  H38 UNL     1       3.453  44.913  10.496  0.00  0.00    +0.000 HD
ENDBRANCH  26  32
ENDBRANCH  22  30
ENDBRANCH   1  22
BRANCH  18  34
ATOM     34  O4  UNL     1       4.486  46.262  -1.904  0.00  0.00    +0.000 OA
ATOM     35  H31 UNL     1       4.070  45.544  -2.449  0.00  0.00    +0.000 HD
ENDBRANCH  18  34
TORSDOF 4
ENDMDL
MODEL 6
REMARK VINA RESULT:      -5.4      2.054      4.005
REMARK  Name = .\Withaferin A.pdb
REMARK  8 active torsions:
REMARK  status: ('A' for Active; 'I' for Inactive)
REMARK    1  A    between atoms: C1_1  and  C2_2
REMARK    2  A    between atoms: C3_3  and  O6_33
REMARK    3  A    between atoms: C5_7  and  C7_9
REMARK    4  A    between atoms: C7_9  and  C8_10
REMARK    5  A    between atoms: C7_9  and  C9_11
REMARK    6  A    between atoms: C13_15  and  C27_32
REMARK    7  A    between atoms: C21_23  and  C26_30
REMARK    8  A    between atoms: C25_28  and  O4_29
REMARK                            x       y       z     vdW  Elec       q    Type
REMARK                         _______ _______ _______ _____ _____    ______ ____
ROOT
ATOM      1  C9  UNL     1       3.770  46.702   4.304  0.00  0.00    +0.000 C 
ATOM      2  C10 UNL     1       2.356  46.340   3.823  0.00  0.00    +0.000 C 
ATOM      3  C11 UNL     1       2.407  46.242   2.304  0.00  0.00    +0.000 C 
ATOM      4  C12 UNL     1       3.859  46.514   1.884  0.00  0.00    +0.000 C 
ATOM      5  C13 UNL     1       4.468  47.329   3.050  0.00  0.00    +0.000 C 
ATOM      6  C14 UNL     1       4.098  48.825   2.880  0.00  0.00    +0.000 C 
ATOM      7  C15 UNL     1       4.564  49.381   1.541  0.00  0.00    +0.000 C 
ATOM      8  C16 UNL     1       3.897  48.686   0.326  0.00  0.00    +0.000 C 
ATOM      9  C17 UNL     1       3.945  47.125   0.439  0.00  0.00    +0.000 C 
ATOM     10  C18 UNL     1       5.079  46.527  -0.418  0.00  0.00    +0.000 C 
ATOM     11  C19 UNL     1       4.890  46.848  -1.909  0.00  0.00    +0.000 C 
ATOM     12  C20 UNL     1       4.510  48.241  -2.246  0.00  0.00    +0.000 C 
ATOM     13  C21 UNL     1       4.394  49.289  -1.084  0.00  0.00    +0.000 C 
ATOM     14  C22 UNL     1       3.429  50.379  -1.541  0.00  0.00    +0.000 C 
ATOM     15  O3  UNL     1       3.083  51.258  -0.763  0.00  0.00    +0.000 OA
ATOM     16  C23 UNL     1       2.905  50.405  -2.956  0.00  0.00    +0.000 C 
ATOM     17  C24 UNL     1       4.044  50.112  -3.940  0.00  0.00    +0.000 C 
ATOM     18  C25 UNL     1       4.695  48.726  -3.705  0.00  0.00    +0.000 C 
ATOM     19  C26 UNL     1       5.799  49.948  -0.982  0.00  0.00    +0.000 C 
ATOM     20  O5  UNL     1       3.555  47.207  -2.215  0.00  0.00    +0.000 OA
ATOM     21  C27 UNL     1       6.005  47.119   3.097  0.00  0.00    +0.000 C 
ENDROOT
BRANCH   1  22
ATOM     22  C7  UNL     1       3.747  47.534   5.639  0.00  0.00    +0.000 C 
ATOM     23  C8  UNL     1       4.665  46.931   6.723  0.00  0.00    +0.000 C 
BRANCH  22  30
ATOM     24  C1  UNL     1      -1.097  49.312   5.236  0.00  0.00    +0.000 C 
ATOM     25  C2  UNL     1      -0.116  48.282   5.722  0.00  0.00    +0.000 C 
ATOM     26  C3  UNL     1      -0.507  47.328   6.588  0.00  0.00    +0.000 C 
ATOM     27  C4  UNL     1       0.476  46.334   7.059  0.00  0.00    +0.000 C 
ATOM     28  O1  UNL     1       0.108  45.327   7.718  0.00  0.00    +0.000 OA
ATOM     29  O2  UNL     1       1.826  46.509   6.754  0.00  0.00    +0.000 OA
ATOM     30  C5  UNL     1       2.304  47.737   6.200  0.00  0.00    +0.000 C 
ATOM     31  C6  UNL     1       1.292  48.273   5.159  0.00  0.00    +0.000 C 
BRANCH  26  32
ATOM     32  O6  UNL     1      -1.828  47.285   7.040  0.00  0.00    +0.000 OA
ATOM     33  H38 UNL     1      -2.151  46.561   7.669  0.00  0.00    +0.000 HD
ENDBRANCH  26  32
ENDBRANCH  22  30
ENDBRANCH   1  22
BRANCH  18  34
ATOM     34  O4  UNL     1       6.065  48.775  -4.007  0.00  0.00    +0.000 OA
ATOM     35  H31 UNL     1       6.156  49.317  -4.833  0.00  0.00    +0.000 HD
ENDBRANCH  18  34
TORSDOF 4
ENDMDL
MODEL 7
REMARK VINA RESULT:      -5.3      2.559      8.431
REMARK  Name = .\Withaferin A.pdb
REMARK  8 active torsions:
REMARK  status: ('A' for Active; 'I' for Inactive)
REMARK    1  A    between atoms: C1_1  and  C2_2
REMARK    2  A    between atoms: C3_3  and  O6_33
REMARK    3  A    between atoms: C5_7  and  C7_9
REMARK    4  A    between atoms: C7_9  and  C8_10
REMARK    5  A    between atoms: C7_9  and  C9_11
REMARK    6  A    between atoms: C13_15  and  C27_32
REMARK    7  A    between atoms: C21_23  and  C26_30
REMARK    8  A    between atoms: C25_28  and  O4_29
REMARK                            x       y       z     vdW  Elec       q    Type
REMARK                         _______ _______ _______ _____ _____    ______ ____
ROOT
ATOM      1  C9  UNL     1       3.897  46.715   2.585  0.00  0.00    +0.000 C 
ATOM      2  C10 UNL     1       4.310  45.739   3.698  0.00  0.00    +0.000 C 
ATOM      3  C11 UNL     1       3.658  46.222   4.986  0.00  0.00    +0.000 C 
ATOM      4  C12 UNL     1       2.830  47.466   4.633  0.00  0.00    +0.000 C 
ATOM      5  C13 UNL     1       3.470  48.020   3.338  0.00  0.00    +0.000 C 
ATOM      6  C14 UNL     1       4.698  48.894   3.704  0.00  0.00    +0.000 C 
ATOM      7  C15 UNL     1       4.328  50.033   4.645  0.00  0.00    +0.000 C 
ATOM      8  C16 UNL     1       3.790  49.542   6.015  0.00  0.00    +0.000 C 
ATOM      9  C17 UNL     1       2.689  48.441   5.857  0.00  0.00    +0.000 C 
ATOM     10  C18 UNL     1       1.272  49.026   6.020  0.00  0.00    +0.000 C 
ATOM     11  C19 UNL     1       1.071  49.642   7.415  0.00  0.00    +0.000 C 
ATOM     12  C20 UNL     1       2.171  50.495   7.928  0.00  0.00    +0.000 C 
ATOM     13  C21 UNL     1       3.411  50.758   7.003  0.00  0.00    +0.000 C 
ATOM     14  C22 UNL     1       4.600  51.072   7.906  0.00  0.00    +0.000 C 
ATOM     15  O3  UNL     1       5.717  51.206   7.424  0.00  0.00    +0.000 OA
ATOM     16  C23 UNL     1       4.418  51.245   9.394  0.00  0.00    +0.000 C 
ATOM     17  C24 UNL     1       3.169  52.091   9.672  0.00  0.00    +0.000 C 
ATOM     18  C25 UNL     1       1.876  51.448   9.112  0.00  0.00    +0.000 C 
ATOM     19  C26 UNL     1       3.077  52.065   6.230  0.00  0.00    +0.000 C 
ATOM     20  O5  UNL     1       2.016  49.161   8.353  0.00  0.00    +0.000 OA
ATOM     21  C27 UNL     1       2.417  48.821   2.527  0.00  0.00    +0.000 C 
ENDROOT
BRANCH   1  22
ATOM     22  C7  UNL     1       4.990  46.827   1.458  0.00  0.00    +0.000 C 
ATOM     23  C8  UNL     1       6.065  47.884   1.788  0.00  0.00    +0.000 C 
BRANCH  22  30
ATOM     24  C1  UNL     1       3.361  50.013  -2.281  0.00  0.00    +0.000 C 
ATOM     25  C2  UNL     1       4.004  48.726  -1.844  0.00  0.00    +0.000 C 
ATOM     26  C3  UNL     1       4.249  47.752  -2.741  0.00  0.00    +0.000 C 
ATOM     27  C4  UNL     1       4.870  46.494  -2.287  0.00  0.00    +0.000 C 
ATOM     28  O1  UNL     1       5.279  45.641  -3.118  0.00  0.00    +0.000 OA
ATOM     29  O2  UNL     1       5.018  46.257  -0.920  0.00  0.00    +0.000 OA
ATOM     30  C5  UNL     1       4.379  47.094   0.047  0.00  0.00    +0.000 C 
ATOM     31  C6  UNL     1       4.455  48.571  -0.405  0.00  0.00    +0.000 C 
BRANCH  26  32
ATOM     32  O6  UNL     1       3.911  47.929  -4.084  0.00  0.00    +0.000 OA
ATOM     33  H38 UNL     1       4.074  48.807  -4.562  0.00  0.00    +0.000 HD
ENDBRANCH  26  32
ENDBRANCH  22  30
ENDBRANCH   1  22
BRANCH  18  34
ATOM     34  O4  UNL     1       0.981  52.445   8.692  0.00  0.00    +0.000 OA
ATOM     35  H31 UNL     1       0.596  52.849   9.513  0.00  0.00    +0.000 HD
ENDBRANCH  18  34
TORSDOF 4
ENDMDL
MODEL 8
REMARK VINA RESULT:      -4.6      1.610      2.873
REMARK  Name = .\Withaferin A.pdb
REMARK  8 active torsions:
REMARK  status: ('A' for Active; 'I' for Inactive)
REMARK    1  A    between atoms: C1_1  and  C2_2
REMARK    2  A    between atoms: C3_3  and  O6_33
REMARK    3  A    between atoms: C5_7  and  C7_9
REMARK    4  A    between atoms: C7_9  and  C8_10
REMARK    5  A    between atoms: C7_9  and  C9_11
REMARK    6  A    between atoms: C13_15  and  C27_32
REMARK    7  A    between atoms: C21_23  and  C26_30
REMARK    8  A    between atoms: C25_28  and  O4_29
REMARK                            x       y       z     vdW  Elec       q    Type
REMARK                         _______ _______ _______ _____ _____    ______ ____
ROOT
ATOM      1  C9  UNL     1       2.121  48.090   4.239  0.00  0.00    +0.000 C 
ATOM      2  C10 UNL     1       0.748  48.172   3.552  0.00  0.00    +0.000 C 
ATOM      3  C11 UNL     1       0.952  47.797   2.090  0.00  0.00    +0.000 C 
ATOM      4  C12 UNL     1       2.440  47.460   1.915  0.00  0.00    +0.000 C 
ATOM      5  C13 UNL     1       3.157  48.199   3.070  0.00  0.00    +0.000 C 
ATOM      6  C14 UNL     1       3.404  49.675   2.661  0.00  0.00    +0.000 C 
ATOM      7  C15 UNL     1       4.212  49.784   1.375  0.00  0.00    +0.000 C 
ATOM      8  C16 UNL     1       3.492  49.167   0.148  0.00  0.00    +0.000 C 
ATOM      9  C17 UNL     1       2.933  47.736   0.449  0.00  0.00    +0.000 C 
ATOM     10  C18 UNL     1       3.857  46.635  -0.109  0.00  0.00    +0.000 C 
ATOM     11  C19 UNL     1       3.996  46.734  -1.637  0.00  0.00    +0.000 C 
ATOM     12  C20 UNL     1       4.215  48.089  -2.198  0.00  0.00    +0.000 C 
ATOM     13  C21 UNL     1       4.355  49.297  -1.207  0.00  0.00    +0.000 C 
ATOM     14  C22 UNL     1       3.939  50.559  -1.958  0.00  0.00    +0.000 C 
ATOM     15  O3  UNL     1       3.854  51.625  -1.365  0.00  0.00    +0.000 OA
ATOM     16  C23 UNL     1       3.648  50.518  -3.438  0.00  0.00    +0.000 C 
ATOM     17  C24 UNL     1       4.708  49.674  -4.156  0.00  0.00    +0.000 C 
ATOM     18  C25 UNL     1       4.753  48.212  -3.645  0.00  0.00    +0.000 C 
ATOM     19  C26 UNL     1       5.880  49.425  -0.927  0.00  0.00    +0.000 C 
ATOM     20  O5  UNL     1       2.945  47.481  -2.223  0.00  0.00    +0.000 OA
ATOM     21  C27 UNL     1       4.482  47.472   3.422  0.00  0.00    +0.000 C 
ENDROOT
BRANCH   1  22
ATOM     22  C7  UNL     1       2.243  49.099   5.441  0.00  0.00    +0.000 C 
ATOM     23  C8  UNL     1       3.237  50.242   5.148  0.00  0.00    +0.000 C 
BRANCH  22  30
ATOM     24  C1  UNL     1       1.245  45.725   9.236  0.00  0.00    +0.000 C 
ATOM     25  C2  UNL     1       2.219  46.447   8.347  0.00  0.00    +0.000 C 
ATOM     26  C3  UNL     1       3.541  46.374   8.591  0.00  0.00    +0.000 C 
ATOM     27  C4  UNL     1       4.478  47.099   7.712  0.00  0.00    +0.000 C 
ATOM     28  O1  UNL     1       5.719  46.908   7.795  0.00  0.00    +0.000 OA
ATOM     29  O2  UNL     1       3.976  47.994   6.767  0.00  0.00    +0.000 OA
ATOM     30  C5  UNL     1       2.604  48.395   6.786  0.00  0.00    +0.000 C 
ATOM     31  C6  UNL     1       1.707  47.180   7.124  0.00  0.00    +0.000 C 
BRANCH  26  32
ATOM     32  O6  UNL     1       4.019  45.626   9.669  0.00  0.00    +0.000 OA
ATOM     33  H38 UNL     1       4.164  44.626   9.601  0.00  0.00    +0.000 HD
ENDBRANCH  26  32
ENDBRANCH  22  30
ENDBRANCH   1  22
BRANCH  18  34
ATOM     34  O4  UNL     1       6.067  47.720  -3.694  0.00  0.00    +0.000 OA
ATOM     35  H31 UNL     1       6.663  48.506  -3.812  0.00  0.00    +0.000 HD
ENDBRANCH  18  34
TORSDOF 4
ENDMDL
MODEL 9
REMARK VINA RESULT:      -4.5      1.720      2.317
REMARK  Name = .\Withaferin A.pdb
REMARK  8 active torsions:
REMARK  status: ('A' for Active; 'I' for Inactive)
REMARK    1  A    between atoms: C1_1  and  C2_2
REMARK    2  A    between atoms: C3_3  and  O6_33
REMARK    3  A    between atoms: C5_7  and  C7_9
REMARK    4  A    between atoms: C7_9  and  C8_10
REMARK    5  A    between atoms: C7_9  and  C9_11
REMARK    6  A    between atoms: C13_15  and  C27_32
REMARK    7  A    between atoms: C21_23  and  C26_30
REMARK    8  A    between atoms: C25_28  and  O4_29
REMARK                            x       y       z     vdW  Elec       q    Type
REMARK                         _______ _______ _______ _____ _____    ______ ____
ROOT
ATOM      1  C9  UNL     1       0.718  47.297   5.578  0.00  0.00    +0.000 C 
ATOM      2  C10 UNL     1       1.280  48.652   6.034  0.00  0.00    +0.000 C 
ATOM      3  C11 UNL     1       1.553  49.473   4.781  0.00  0.00    +0.000 C 
ATOM      4  C12 UNL     1       1.121  48.617   3.580  0.00  0.00    +0.000 C 
ATOM      5  C13 UNL     1       1.178  47.157   4.088  0.00  0.00    +0.000 C 
ATOM      6  C14 UNL     1       2.634  46.633   3.987  0.00  0.00    +0.000 C 
ATOM      7  C15 UNL     1       3.178  46.725   2.568  0.00  0.00    +0.000 C 
ATOM      8  C16 UNL     1       3.262  48.181   2.040  0.00  0.00    +0.000 C 
ATOM      9  C17 UNL     1       1.935  48.976   2.285  0.00  0.00    +0.000 C 
ATOM     10  C18 UNL     1       1.069  49.045   1.011  0.00  0.00    +0.000 C 
ATOM     11  C19 UNL     1       1.802  49.766  -0.132  0.00  0.00    +0.000 C 
ATOM     12  C20 UNL     1       3.221  49.395  -0.351  0.00  0.00    +0.000 C 
ATOM     13  C21 UNL     1       3.846  48.265   0.540  0.00  0.00    +0.000 C 
ATOM     14  C22 UNL     1       5.353  48.500   0.592  0.00  0.00    +0.000 C 
ATOM     15  O3  UNL     1       6.056  47.813   1.319  0.00  0.00    +0.000 OA
ATOM     16  C23 UNL     1       6.000  49.561  -0.264  0.00  0.00    +0.000 C 
ATOM     17  C24 UNL     1       5.413  49.521  -1.680  0.00  0.00    +0.000 C 
ATOM     18  C25 UNL     1       3.884  49.769  -1.699  0.00  0.00    +0.000 C 
ATOM     19  C26 UNL     1       3.626  46.946  -0.254  0.00  0.00    +0.000 C 
ATOM     20  O5  UNL     1       2.868  50.571   0.338  0.00  0.00    +0.000 OA
ATOM     21  C27 UNL     1       0.193  46.275   3.274  0.00  0.00    +0.000 C 
ENDROOT
BRANCH   1  22
ATOM     22  C7  UNL     1       1.076  46.138   6.582  0.00  0.00    +0.000 C 
ATOM     23  C8  UNL     1      -0.138  45.697   7.426  0.00  0.00    +0.000 C 
BRANCH  22  30
ATOM     24  C1  UNL     1       5.625  45.013   8.778  0.00  0.00    +0.000 C 
ATOM     25  C2  UNL     1       4.667  46.009   8.185  0.00  0.00    +0.000 C 
ATOM     26  C3  UNL     1       4.911  47.329   8.288  0.00  0.00    +0.000 C 
ATOM     27  C4  UNL     1       3.952  48.287   7.707  0.00  0.00    +0.000 C 
ATOM     28  O1  UNL     1       4.235  49.511   7.622  0.00  0.00    +0.000 OA
ATOM     29  O2  UNL     1       2.723  47.825   7.234  0.00  0.00    +0.000 OA
ATOM     30  C5  UNL     1       2.283  46.492   7.507  0.00  0.00    +0.000 C 
ATOM     31  C6  UNL     1       3.474  45.511   7.394  0.00  0.00    +0.000 C 
BRANCH  26  32
ATOM     32  O6  UNL     1       6.057  47.785   8.943  0.00  0.00    +0.000 OA
ATOM     33  H38 UNL     1       6.018  48.533   9.625  0.00  0.00    +0.000 HD
ENDBRANCH  26  32
ENDBRANCH  22  30
ENDBRANCH   1  22
BRANCH  18  34
ATOM     34  O4  UNL     1       3.284  49.030  -2.731  0.00  0.00    +0.000 OA
ATOM     35  H31 UNL     1       2.388  48.757  -2.404  0.00  0.00    +0.000 HD
ENDBRANCH  18  34
TORSDOF 4
ENDMDL
