MODEL 1
REMARK VINA RESULT:      -1.2      0.000      0.000
REMARK  Name = .\Withaferin A.pdb
REMARK  8 active torsions:
REMARK  status: ('A' for Active; 'I' for Inactive)
REMARK    1  A    between atoms: C1_1  and  C2_2
REMARK    2  A    between atoms: C3_3  and  O6_33
REMARK    3  A    between atoms: C5_7  and  C7_9
REMARK    4  A    between atoms: C7_9  and  C8_10
REMARK    5  A    between atoms: C7_9  and  C9_11
REMARK    6  A    between atoms: C13_15  and  C27_32
REMARK    7  A    between atoms: C21_23  and  C26_30
REMARK    8  A    between atoms: C25_28  and  O4_29
REMARK                            x       y       z     vdW  Elec       q    Type
REMARK                         _______ _______ _______ _____ _____    ______ ____
ROOT
ATOM      1  C9  UNL     1     -11.202  42.334 -35.616  0.00  0.00    +0.000 C 
ATOM      2  C10 UNL     1     -10.393  41.942 -36.863  0.00  0.00    +0.000 C 
ATOM      3  C11 UNL     1      -8.994  41.568 -36.393  0.00  0.00    +0.000 C 
ATOM      4  C12 UNL     1      -8.981  41.706 -34.863  0.00  0.00    +0.000 C 
ATOM      5  C13 UNL     1     -10.124  42.697 -34.540  0.00  0.00    +0.000 C 
ATOM      6  C14 UNL     1      -9.611  44.150 -34.714  0.00  0.00    +0.000 C 
ATOM      7  C15 UNL     1      -8.396  44.435 -33.841  0.00  0.00    +0.000 C 
ATOM      8  C16 UNL     1      -7.169  43.555 -34.196  0.00  0.00    +0.000 C 
ATOM      9  C17 UNL     1      -7.545  42.040 -34.319  0.00  0.00    +0.000 C 
ATOM     10  C18 UNL     1      -7.169  41.255 -33.046  0.00  0.00    +0.000 C 
ATOM     11  C19 UNL     1      -5.656  41.306 -32.776  0.00  0.00    +0.000 C 
ATOM     12  C20 UNL     1      -5.000  42.628 -32.921  0.00  0.00    +0.000 C 
ATOM     13  C21 UNL     1      -5.889  43.873 -33.269  0.00  0.00    +0.000 C 
ATOM     14  C22 UNL     1      -4.996  44.896 -33.966  0.00  0.00    +0.000 C 
ATOM     15  O3  UNL     1      -5.483  45.914 -34.439  0.00  0.00    +0.000 OA
ATOM     16  C23 UNL     1      -3.506  44.683 -34.064  0.00  0.00    +0.000 C 
ATOM     17  C24 UNL     1      -2.961  44.175 -32.723  0.00  0.00    +0.000 C 
ATOM     18  C25 UNL     1      -3.601  42.832 -32.289  0.00  0.00    +0.000 C 
ATOM     19  C26 UNL     1      -6.290  44.488 -31.898  0.00  0.00    +0.000 C 
ATOM     20  O5  UNL     1      -4.917  41.652 -33.933  0.00  0.00    +0.000 OA
ATOM     21  C27 UNL     1     -10.654  42.443 -33.104  0.00  0.00    +0.000 C 
ENDROOT
BRANCH   1  22
ATOM     22  C7  UNL     1     -12.317  43.396 -35.944  0.00  0.00    +0.000 C 
ATOM     23  C8  UNL     1     -12.023  44.174 -37.244  0.00  0.00    +0.000 C 
BRANCH  22  30
ATOM     24  C1  UNL     1     -12.593  44.506 -30.896  0.00  0.00    +0.000 C 
ATOM     25  C2  UNL     1     -12.277  44.906 -32.311  0.00  0.00    +0.000 C 
ATOM     26  C3  UNL     1     -12.021  46.194 -32.609  0.00  0.00    +0.000 C 
ATOM     27  C4  UNL     1     -11.724  46.565 -34.005  0.00  0.00    +0.000 C 
ATOM     28  O1  UNL     1     -11.303  47.717 -34.290  0.00  0.00    +0.000 OA
ATOM     29  O2  UNL     1     -11.900  45.621 -35.017  0.00  0.00    +0.000 OA
ATOM     30  C5  UNL     1     -12.574  44.386 -34.764  0.00  0.00    +0.000 C 
ATOM     31  C6  UNL     1     -12.161  43.837 -33.378  0.00  0.00    +0.000 C 
BRANCH  26  32
ATOM     32  O6  UNL     1     -12.044  47.168 -31.608  0.00  0.00    +0.000 OA
ATOM     33  H38 UNL     1     -12.011  48.156 -31.827  0.00  0.00    +0.000 HD
ENDBRANCH  26  32
ENDBRANCH  22  30
ENDBRANCH   1  22
BRANCH  18  34
ATOM     34  O4  UNL     1      -3.712  42.775 -30.891  0.00  0.00    +0.000 OA
ATOM     35  H31 UNL     1      -3.250  41.946 -30.601  0.00  0.00    +0.000 HD
ENDBRANCH  18  34
TORSDOF 4
ENDMDL
MODEL 2
REMARK VINA RESULT:       1.5      1.901      7.459
REMARK  Name = .\Withaferin A.pdb
REMARK  8 active torsions:
REMARK  status: ('A' for Active; 'I' for Inactive)
REMARK    1  A    between atoms: C1_1  and  C2_2
REMARK    2  A    between atoms: C3_3  and  O6_33
REMARK    3  A    between atoms: C5_7  and  C7_9
REMARK    4  A    between atoms: C7_9  and  C8_10
REMARK    5  A    between atoms: C7_9  and  C9_11
REMARK    6  A    between atoms: C13_15  and  C27_32
REMARK    7  A    between atoms: C21_23  and  C26_30
REMARK    8  A    between atoms: C25_28  and  O4_29
REMARK                            x       y       z     vdW  Elec       q    Type
REMARK                         _______ _______ _______ _____ _____    ______ ____
ROOT
ATOM      1  C9  UNL     1      -5.475  41.255 -31.339  0.00  0.00    +0.000 C 
ATOM      2  C10 UNL     1      -6.396  41.285 -30.109  0.00  0.00    +0.000 C 
ATOM      3  C11 UNL     1      -7.829  41.335 -30.619  0.00  0.00    +0.000 C 
ATOM      4  C12 UNL     1      -7.762  41.301 -32.153  0.00  0.00    +0.000 C 
ATOM      5  C13 UNL     1      -6.351  41.826 -32.505  0.00  0.00    +0.000 C 
ATOM      6  C14 UNL     1      -6.362  43.377 -32.501  0.00  0.00    +0.000 C 
ATOM      7  C15 UNL     1      -7.396  43.942 -33.466  0.00  0.00    +0.000 C 
ATOM      8  C16 UNL     1      -8.852  43.552 -33.098  0.00  0.00    +0.000 C 
ATOM      9  C17 UNL     1      -8.996  42.020 -32.808  0.00  0.00    +0.000 C 
ATOM     10  C18 UNL     1      -9.580  41.264 -34.019  0.00  0.00    +0.000 C 
ATOM     11  C19 UNL     1     -10.986  41.773 -34.378  0.00  0.00    +0.000 C 
ATOM     12  C20 UNL     1     -11.176  43.243 -34.398  0.00  0.00    +0.000 C 
ATOM     13  C21 UNL     1      -9.936  44.164 -34.122  0.00  0.00    +0.000 C 
ATOM     14  C22 UNL     1     -10.459  45.490 -33.579  0.00  0.00    +0.000 C 
ATOM     15  O3  UNL     1      -9.675  46.341 -33.180  0.00  0.00    +0.000 OA
ATOM     16  C23 UNL     1     -11.938  45.784 -33.546  0.00  0.00    +0.000 C 
ATOM     17  C24 UNL     1     -12.589  45.335 -34.860  0.00  0.00    +0.000 C 
ATOM     18  C25 UNL     1     -12.416  43.819 -35.125  0.00  0.00    +0.000 C 
ATOM     19  C26 UNL     1      -9.324  44.461 -35.521  0.00  0.00    +0.000 C 
ATOM     20  O5  UNL     1     -11.597  42.464 -33.303  0.00  0.00    +0.000 OA
ATOM     21  C27 UNL     1      -5.901  41.258 -33.878  0.00  0.00    +0.000 C 
ENDROOT
BRANCH   1  22
ATOM     22  C7  UNL     1      -4.081  41.927 -31.053  0.00  0.00    +0.000 C 
ATOM     23  C8  UNL     1      -4.166  43.010 -29.956  0.00  0.00    +0.000 C 
BRANCH  22  30
ATOM     24  C1  UNL     1      -2.103  41.391 -35.805  0.00  0.00    +0.000 C 
ATOM     25  C2  UNL     1      -2.860  42.194 -34.783  0.00  0.00    +0.000 C 
ATOM     26  C3  UNL     1      -3.159  43.485 -35.023  0.00  0.00    +0.000 C 
ATOM     27  C4  UNL     1      -3.893  44.256 -34.002  0.00  0.00    +0.000 C 
ATOM     28  O1  UNL     1      -4.349  45.400 -34.262  0.00  0.00    +0.000 OA
ATOM     29  O2  UNL     1      -4.095  43.700 -32.738  0.00  0.00    +0.000 OA
ATOM     30  C5  UNL     1      -3.414  42.507 -32.340  0.00  0.00    +0.000 C 
ATOM     31  C6  UNL     1      -3.359  41.514 -33.525  0.00  0.00    +0.000 C 
BRANCH  26  32
ATOM     32  O6  UNL     1      -2.774  44.088 -36.222  0.00  0.00    +0.000 OA
ATOM     33  H38 UNL     1      -2.952  45.068 -36.406  0.00  0.00    +0.000 HD
ENDBRANCH  26  32
ENDBRANCH  22  30
ENDBRANCH   1  22
BRANCH  18  34
ATOM     34  O4  UNL     1     -12.299  43.576 -36.503  0.00  0.00    +0.000 OA
ATOM     35  H31 UNL     1     -11.386  43.218 -36.654  0.00  0.00    +0.000 HD
ENDBRANCH  18  34
TORSDOF 4
ENDMDL
