MODEL 1
REMARK VINA RESULT:      -5.3      0.000      0.000
REMARK  Name = .\Withaferin A.pdb
REMARK  8 active torsions:
REMARK  status: ('A' for Active; 'I' for Inactive)
REMARK    1  A    between atoms: C1_1  and  C2_2
REMARK    2  A    between atoms: C3_3  and  O6_33
REMARK    3  A    between atoms: C5_7  and  C7_9
REMARK    4  A    between atoms: C7_9  and  C8_10
REMARK    5  A    between atoms: C7_9  and  C9_11
REMARK    6  A    between atoms: C13_15  and  C27_32
REMARK    7  A    between atoms: C21_23  and  C26_30
REMARK    8  A    between atoms: C25_28  and  O4_29
REMARK                            x       y       z     vdW  Elec       q    Type
REMARK                         _______ _______ _______ _____ _____    ______ ____
ROOT
ATOM      1  C9  UNL     1       1.585  71.810 132.350  0.00  0.00    +0.000 C 
ATOM      2  C10 UNL     1       2.049  72.973 133.241  0.00  0.00    +0.000 C 
ATOM      3  C11 UNL     1       3.466  73.332 132.813  0.00  0.00    +0.000 C 
ATOM      4  C12 UNL     1       3.833  72.403 131.646  0.00  0.00    +0.000 C 
ATOM      5  C13 UNL     1       2.909  71.173 131.807  0.00  0.00    +0.000 C 
ATOM      6  C14 UNL     1       3.533  70.192 132.834  0.00  0.00    +0.000 C 
ATOM      7  C15 UNL     1       4.935  69.757 132.429  0.00  0.00    +0.000 C 
ATOM      8  C16 UNL     1       5.945  70.932 132.367  0.00  0.00    +0.000 C 
ATOM      9  C17 UNL     1       5.381  72.153 131.564  0.00  0.00    +0.000 C 
ATOM     10  C18 UNL     1       5.938  72.194 130.126  0.00  0.00    +0.000 C 
ATOM     11  C19 UNL     1       7.469  72.337 130.116  0.00  0.00    +0.000 C 
ATOM     12  C20 UNL     1       8.223  71.479 131.062  0.00  0.00    +0.000 C 
ATOM     13  C21 UNL     1       7.426  70.455 131.945  0.00  0.00    +0.000 C 
ATOM     14  C22 UNL     1       8.252  70.188 133.200  0.00  0.00    +0.000 C 
ATOM     15  O3  UNL     1       7.791  69.504 134.103  0.00  0.00    +0.000 OA
ATOM     16  C23 UNL     1       9.650  70.739 133.337  0.00  0.00    +0.000 C 
ATOM     17  C24 UNL     1      10.416  70.555 132.022  0.00  0.00    +0.000 C 
ATOM     18  C25 UNL     1       9.741  71.279 130.831  0.00  0.00    +0.000 C 
ATOM     19  C26 UNL     1       7.410  69.132 131.128  0.00  0.00    +0.000 C 
ATOM     20  O5  UNL     1       7.968  72.835 131.344  0.00  0.00    +0.000 OA
ATOM     21  C27 UNL     1       2.685  70.496 130.429  0.00  0.00    +0.000 C 
ENDROOT
BRANCH   1  22
ATOM     22  C7  UNL     1       0.554  70.876 133.085  0.00  0.00    +0.000 C 
ATOM     23  C8  UNL     1      -0.458  71.673 133.934  0.00  0.00    +0.000 C 
BRANCH  22  30
ATOM     24  C1  UNL     1       2.342  69.076 137.596  0.00  0.00    +0.000 C 
ATOM     25  C2  UNL     1       1.701  68.847 136.255  0.00  0.00    +0.000 C 
ATOM     26  C3  UNL     1       1.533  67.595 135.790  0.00  0.00    +0.000 C 
ATOM     27  C4  UNL     1       0.911  67.395 134.467  0.00  0.00    +0.000 C 
ATOM     28  O1  UNL     1       0.572  66.246 134.082  0.00  0.00    +0.000 OA
ATOM     29  O2  UNL     1       0.684  68.498 133.643  0.00  0.00    +0.000 OA
ATOM     30  C5  UNL     1       1.245  69.776 133.952  0.00  0.00    +0.000 C 
ATOM     31  C6  UNL     1       1.165  70.031 135.476  0.00  0.00    +0.000 C 
BRANCH  26  32
ATOM     32  O6  UNL     1       1.949  66.499 136.549  0.00  0.00    +0.000 OA
ATOM     33  H38 UNL     1       2.698  65.892 136.240  0.00  0.00    +0.000 HD
ENDBRANCH  26  32
ENDBRANCH  22  30
ENDBRANCH   1  22
BRANCH  18  34
ATOM     34  O4  UNL     1       9.936  70.553 129.645  0.00  0.00    +0.000 OA
ATOM     35  H31 UNL     1      10.737  69.984 129.788  0.00  0.00    +0.000 HD
ENDBRANCH  18  34
TORSDOF 4
ENDMDL
MODEL 2
REMARK VINA RESULT:      -5.1      2.206      4.023
REMARK  Name = .\Withaferin A.pdb
REMARK  8 active torsions:
REMARK  status: ('A' for Active; 'I' for Inactive)
REMARK    1  A    between atoms: C1_1  and  C2_2
REMARK    2  A    between atoms: C3_3  and  O6_33
REMARK    3  A    between atoms: C5_7  and  C7_9
REMARK    4  A    between atoms: C7_9  and  C8_10
REMARK    5  A    between atoms: C7_9  and  C9_11
REMARK    6  A    between atoms: C13_15  and  C27_32
REMARK    7  A    between atoms: C21_23  and  C26_30
REMARK    8  A    between atoms: C25_28  and  O4_29
REMARK                            x       y       z     vdW  Elec       q    Type
REMARK                         _______ _______ _______ _____ _____    ______ ____
ROOT
ATOM      1  C9  UNL     1       2.943  68.981 135.714  0.00  0.00    +0.000 C 
ATOM      2  C10 UNL     1       3.701  67.661 135.929  0.00  0.00    +0.000 C 
ATOM      3  C11 UNL     1       5.175  67.941 135.670  0.00  0.00    +0.000 C 
ATOM      4  C12 UNL     1       5.298  69.434 135.332  0.00  0.00    +0.000 C 
ATOM      5  C13 UNL     1       3.897  69.846 134.822  0.00  0.00    +0.000 C 
ATOM      6  C14 UNL     1       3.765  69.477 133.322  0.00  0.00    +0.000 C 
ATOM      7  C15 UNL     1       4.851  70.128 132.476  0.00  0.00    +0.000 C 
ATOM      8  C16 UNL     1       6.281  69.663 132.857  0.00  0.00    +0.000 C 
ATOM      9  C17 UNL     1       6.530  69.723 134.401  0.00  0.00    +0.000 C 
ATOM     10  C18 UNL     1       7.324  70.983 134.801  0.00  0.00    +0.000 C 
ATOM     11  C19 UNL     1       8.710  71.013 134.136  0.00  0.00    +0.000 C 
ATOM     12  C20 UNL     1       8.765  70.661 132.697  0.00  0.00    +0.000 C 
ATOM     13  C21 UNL     1       7.420  70.353 131.948  0.00  0.00    +0.000 C 
ATOM     14  C22 UNL     1       7.749  69.446 130.766  0.00  0.00    +0.000 C 
ATOM     15  O3  UNL     1       6.848  68.972 130.088  0.00  0.00    +0.000 OA
ATOM     16  C23 UNL     1       9.180  69.139 130.401  0.00  0.00    +0.000 C 
ATOM     17  C24 UNL     1      10.024  70.418 130.474  0.00  0.00    +0.000 C 
ATOM     18  C25 UNL     1      10.025  71.053 131.887  0.00  0.00    +0.000 C 
ATOM     19  C26 UNL     1       6.958  71.714 131.355  0.00  0.00    +0.000 C 
ATOM     20  O5  UNL     1       9.120  69.732 133.693  0.00  0.00    +0.000 OA
ATOM     21  C27 UNL     1       3.671  71.363 135.063  0.00  0.00    +0.000 C 
ENDROOT
BRANCH   1  22
ATOM     22  C7  UNL     1       1.469  68.742 135.217  0.00  0.00    +0.000 C 
ATOM     23  C8  UNL     1       1.417  67.953 133.892  0.00  0.00    +0.000 C 
BRANCH  22  30
ATOM     24  C1  UNL     1      -0.293  73.213 137.139  0.00  0.00    +0.000 C 
ATOM     25  C2  UNL     1       0.197  72.386 135.982  0.00  0.00    +0.000 C 
ATOM     26  C3  UNL     1       0.098  72.855 134.724  0.00  0.00    +0.000 C 
ATOM     27  C4  UNL     1       0.576  72.022 133.605  0.00  0.00    +0.000 C 
ATOM     28  O1  UNL     1       0.669  72.496 132.442  0.00  0.00    +0.000 OA
ATOM     29  O2  UNL     1       0.943  70.697 133.844  0.00  0.00    +0.000 OA
ATOM     30  C5  UNL     1       0.651  70.066 135.094  0.00  0.00    +0.000 C 
ATOM     31  C6  UNL     1       0.885  71.063 136.253  0.00  0.00    +0.000 C 
BRANCH  26  32
ATOM     32  O6  UNL     1      -0.458  74.113 134.482  0.00  0.00    +0.000 OA
ATOM     33  H38 UNL     1      -0.156  74.687 133.704  0.00  0.00    +0.000 HD
ENDBRANCH  26  32
ENDBRANCH  22  30
ENDBRANCH   1  22
BRANCH  18  34
ATOM     34  O4  UNL     1      10.098  72.452 131.791  0.00  0.00    +0.000 OA
ATOM     35  H31 UNL     1       9.175  72.795 131.912  0.00  0.00    +0.000 HD
ENDBRANCH  18  34
TORSDOF 4
ENDMDL
MODEL 3
REMARK VINA RESULT:      -5.0      1.454      1.785
REMARK  Name = .\Withaferin A.pdb
REMARK  8 active torsions:
REMARK  status: ('A' for Active; 'I' for Inactive)
REMARK    1  A    between atoms: C1_1  and  C2_2
REMARK    2  A    between atoms: C3_3  and  O6_33
REMARK    3  A    between atoms: C5_7  and  C7_9
REMARK    4  A    between atoms: C7_9  and  C8_10
REMARK    5  A    between atoms: C7_9  and  C9_11
REMARK    6  A    between atoms: C13_15  and  C27_32
REMARK    7  A    between atoms: C21_23  and  C26_30
REMARK    8  A    between atoms: C25_28  and  O4_29
REMARK                            x       y       z     vdW  Elec       q    Type
REMARK                         _______ _______ _______ _____ _____    ______ ____
ROOT
ATOM      1  C9  UNL     1       1.787  70.800 132.716  0.00  0.00    +0.000 C 
ATOM      2  C10 UNL     1       2.239  71.415 134.050  0.00  0.00    +0.000 C 
ATOM      3  C11 UNL     1       3.489  72.237 133.767  0.00  0.00    +0.000 C 
ATOM      4  C12 UNL     1       3.761  72.138 132.259  0.00  0.00    +0.000 C 
ATOM      5  C13 UNL     1       3.064  70.832 131.811  0.00  0.00    +0.000 C 
ATOM      6  C14 UNL     1       3.996  69.626 132.097  0.00  0.00    +0.000 C 
ATOM      7  C15 UNL     1       5.347  69.773 131.410  0.00  0.00    +0.000 C 
ATOM      8  C16 UNL     1       6.154  71.001 131.905  0.00  0.00    +0.000 C 
ATOM      9  C17 UNL     1       5.288  72.305 131.929  0.00  0.00    +0.000 C 
ATOM     10  C18 UNL     1       5.561  73.192 130.698  0.00  0.00    +0.000 C 
ATOM     11  C19 UNL     1       7.029  73.647 130.641  0.00  0.00    +0.000 C 
ATOM     12  C20 UNL     1       8.055  72.613 130.916  0.00  0.00    +0.000 C 
ATOM     13  C21 UNL     1       7.585  71.138 131.174  0.00  0.00    +0.000 C 
ATOM     14  C22 UNL     1       8.656  70.455 132.018  0.00  0.00    +0.000 C 
ATOM     15  O3  UNL     1       8.469  69.325 132.449  0.00  0.00    +0.000 OA
ATOM     16  C23 UNL     1       9.965  71.145 132.315  0.00  0.00    +0.000 C 
ATOM     17  C24 UNL     1      10.495  71.827 131.048  0.00  0.00    +0.000 C 
ATOM     18  C25 UNL     1       9.518  72.892 130.490  0.00  0.00    +0.000 C 
ATOM     19  C26 UNL     1       7.605  70.450 129.780  0.00  0.00    +0.000 C 
ATOM     20  O5  UNL     1       7.670  73.544 131.900  0.00  0.00    +0.000 OA
ATOM     21  C27 UNL     1       2.688  70.922 130.307  0.00  0.00    +0.000 C 
ENDROOT
BRANCH   1  22
ATOM     22  C7  UNL     1       1.048  69.425 132.917  0.00  0.00    +0.000 C 
ATOM     23  C8  UNL     1      -0.458  69.516 132.596  0.00  0.00    +0.000 C 
BRANCH  22  30
ATOM     24  C1  UNL     1      -0.345  66.337 136.829  0.00  0.00    +0.000 C 
ATOM     25  C2  UNL     1       0.718  66.996 135.994  0.00  0.00    +0.000 C 
ATOM     26  C3  UNL     1       2.007  66.948 136.378  0.00  0.00    +0.000 C 
ATOM     27  C4  UNL     1       3.031  67.611 135.549  0.00  0.00    +0.000 C 
ATOM     28  O1  UNL     1       4.257  67.433 135.775  0.00  0.00    +0.000 OA
ATOM     29  O2  UNL     1       2.632  68.431 134.493  0.00  0.00    +0.000 OA
ATOM     30  C5  UNL     1       1.266  68.825 134.341  0.00  0.00    +0.000 C 
ATOM     31  C6  UNL     1       0.336  67.634 134.674  0.00  0.00    +0.000 C 
BRANCH  26  32
ATOM     32  O6  UNL     1       2.369  66.285 137.553  0.00  0.00    +0.000 OA
ATOM     33  H38 UNL     1       2.796  65.367 137.535  0.00  0.00    +0.000 HD
ENDBRANCH  26  32
ENDBRANCH  22  30
ENDBRANCH   1  22
BRANCH  18  34
ATOM     34  O4  UNL     1       9.593  72.933 129.089  0.00  0.00    +0.000 OA
ATOM     35  H31 UNL     1      10.499  72.612 128.841  0.00  0.00    +0.000 HD
ENDBRANCH  18  34
TORSDOF 4
ENDMDL
MODEL 4
REMARK VINA RESULT:      -4.6      2.170      8.445
REMARK  Name = .\Withaferin A.pdb
REMARK  8 active torsions:
REMARK  status: ('A' for Active; 'I' for Inactive)
REMARK    1  A    between atoms: C1_1  and  C2_2
REMARK    2  A    between atoms: C3_3  and  O6_33
REMARK    3  A    between atoms: C5_7  and  C7_9
REMARK    4  A    between atoms: C7_9  and  C8_10
REMARK    5  A    between atoms: C7_9  and  C9_11
REMARK    6  A    between atoms: C13_15  and  C27_32
REMARK    7  A    between atoms: C21_23  and  C26_30
REMARK    8  A    between atoms: C25_28  and  O4_29
REMARK                            x       y       z     vdW  Elec       q    Type
REMARK                         _______ _______ _______ _____ _____    ______ ____
ROOT
ATOM      1  C9  UNL     1       6.401  70.283 130.730  0.00  0.00    +0.000 C 
ATOM      2  C10 UNL     1       5.564  69.023 130.458  0.00  0.00    +0.000 C 
ATOM      3  C11 UNL     1       4.115  69.366 130.775  0.00  0.00    +0.000 C 
ATOM      4  C12 UNL     1       4.086  70.841 131.204  0.00  0.00    +0.000 C 
ATOM      5  C13 UNL     1       5.520  71.144 131.697  0.00  0.00    +0.000 C 
ATOM      6  C14 UNL     1       5.668  70.679 133.169  0.00  0.00    +0.000 C 
ATOM      7  C15 UNL     1       4.641  71.336 134.082  0.00  0.00    +0.000 C 
ATOM      8  C16 UNL     1       3.178  70.973 133.715  0.00  0.00    +0.000 C 
ATOM      9  C17 UNL     1       2.895  71.140 132.184  0.00  0.00    +0.000 C 
ATOM     10  C18 UNL     1       2.164  72.463 131.882  0.00  0.00    +0.000 C 
ATOM     11  C19 UNL     1       0.798  72.529 132.586  0.00  0.00    +0.000 C 
ATOM     12  C20 UNL     1       0.760  72.094 134.003  0.00  0.00    +0.000 C 
ATOM     13  C21 UNL     1       2.103  71.669 134.694  0.00  0.00    +0.000 C 
ATOM     14  C22 UNL     1       1.753  70.712 135.830  0.00  0.00    +0.000 C 
ATOM     15  O3  UNL     1       2.643  70.149 136.453  0.00  0.00    +0.000 OA
ATOM     16  C23 UNL     1       0.316  70.462 136.217  0.00  0.00    +0.000 C 
ATOM     17  C24 UNL     1      -0.456  71.786 136.243  0.00  0.00    +0.000 C 
ATOM     18  C25 UNL     1      -0.456  72.505 134.870  0.00  0.00    +0.000 C 
ATOM     19  C26 UNL     1       2.656  72.964 135.353  0.00  0.00    +0.000 C 
ATOM     20  O5  UNL     1       0.328  71.248 132.964  0.00  0.00    +0.000 OA
ATOM     21  C27 UNL     1       5.825  72.658 131.540  0.00  0.00    +0.000 C 
ENDROOT
BRANCH   1  22
ATOM     22  C7  UNL     1       7.871  69.935 131.170  0.00  0.00    +0.000 C 
ATOM     23  C8  UNL     1       8.055  69.997 132.701  0.00  0.00    +0.000 C 
BRANCH  22  30
ATOM     24  C1  UNL     1       9.679  72.467 127.034  0.00  0.00    +0.000 C 
ATOM     25  C2  UNL     1       9.510  72.341 128.523  0.00  0.00    +0.000 C 
ATOM     26  C3  UNL     1      10.192  73.152 129.353  0.00  0.00    +0.000 C 
ATOM     27  C4  UNL     1      10.019  73.003 130.810  0.00  0.00    +0.000 C 
ATOM     28  O1  UNL     1      10.493  73.855 131.606  0.00  0.00    +0.000 OA
ATOM     29  O2  UNL     1       9.306  71.911 131.307  0.00  0.00    +0.000 OA
ATOM     30  C5  UNL     1       8.941  70.821 130.457  0.00  0.00    +0.000 C 
ATOM     31  C6  UNL     1       8.499  71.357 129.075  0.00  0.00    +0.000 C 
BRANCH  26  32
ATOM     32  O6  UNL     1      11.060  74.118 128.840  0.00  0.00    +0.000 OA
ATOM     33  H38 UNL     1      10.880  74.580 127.957  0.00  0.00    +0.000 HD
ENDBRANCH  26  32
ENDBRANCH  22  30
ENDBRANCH   1  22
BRANCH  18  34
ATOM     34  O4  UNL     1      -0.448  73.897 135.050  0.00  0.00    +0.000 OA
ATOM     35  H31 UNL     1      -1.394  74.176 135.163  0.00  0.00    +0.000 HD
ENDBRANCH  18  34
TORSDOF 4
ENDMDL
MODEL 5
REMARK VINA RESULT:      -4.6      2.380      4.566
REMARK  Name = .\Withaferin A.pdb
REMARK  8 active torsions:
REMARK  status: ('A' for Active; 'I' for Inactive)
REMARK    1  A    between atoms: C1_1  and  C2_2
REMARK    2  A    between atoms: C3_3  and  O6_33
REMARK    3  A    between atoms: C5_7  and  C7_9
REMARK    4  A    between atoms: C7_9  and  C8_10
REMARK    5  A    between atoms: C7_9  and  C9_11
REMARK    6  A    between atoms: C13_15  and  C27_32
REMARK    7  A    between atoms: C21_23  and  C26_30
REMARK    8  A    between atoms: C25_28  and  O4_29
REMARK                            x       y       z     vdW  Elec       q    Type
REMARK                         _______ _______ _______ _____ _____    ______ ____
ROOT
ATOM      1  C9  UNL     1       4.010  68.785 136.431  0.00  0.00    +0.000 C 
ATOM      2  C10 UNL     1       4.764  67.447 136.466  0.00  0.00    +0.000 C 
ATOM      3  C11 UNL     1       6.238  67.753 136.239  0.00  0.00    +0.000 C 
ATOM      4  C12 UNL     1       6.364  69.277 136.101  0.00  0.00    +0.000 C 
ATOM      5  C13 UNL     1       4.963  69.758 135.658  0.00  0.00    +0.000 C 
ATOM      6  C14 UNL     1       4.823  69.592 134.122  0.00  0.00    +0.000 C 
ATOM      7  C15 UNL     1       5.908  70.346 133.365  0.00  0.00    +0.000 C 
ATOM      8  C16 UNL     1       7.338  69.829 133.673  0.00  0.00    +0.000 C 
ATOM      9  C17 UNL     1       7.594  69.683 135.211  0.00  0.00    +0.000 C 
ATOM     10  C18 UNL     1       8.394  70.877 135.770  0.00  0.00    +0.000 C 
ATOM     11  C19 UNL     1       9.778  70.990 135.109  0.00  0.00    +0.000 C 
ATOM     12  C20 UNL     1       9.825  70.832 133.635  0.00  0.00    +0.000 C 
ATOM     13  C21 UNL     1       8.476  70.630 132.859  0.00  0.00    +0.000 C 
ATOM     14  C22 UNL     1       8.796  69.887 131.565  0.00  0.00    +0.000 C 
ATOM     15  O3  UNL     1       7.890  69.510 130.835  0.00  0.00    +0.000 OA
ATOM     16  C23 UNL     1      10.224  69.627 131.156  0.00  0.00    +0.000 C 
ATOM     17  C24 UNL     1      11.074  70.881 131.394  0.00  0.00    +0.000 C 
ATOM     18  C25 UNL     1      11.083  71.323 132.879  0.00  0.00    +0.000 C 
ATOM     19  C26 UNL     1       8.016  72.059 132.454  0.00  0.00    +0.000 C 
ATOM     20  O5  UNL     1      10.180  69.778 134.498  0.00  0.00    +0.000 OA
ATOM     21  C27 UNL     1       4.744  71.230 136.098  0.00  0.00    +0.000 C 
ENDROOT
BRANCH   1  22
ATOM     22  C7  UNL     1       2.532  68.620 135.914  0.00  0.00    +0.000 C 
ATOM     23  C8  UNL     1       2.239  67.186 135.426  0.00  0.00    +0.000 C 
BRANCH  22  30
ATOM     24  C1  UNL     1       0.068  69.971 131.568  0.00  0.00    +0.000 C 
ATOM     25  C2  UNL     1       0.600  70.311 132.933  0.00  0.00    +0.000 C 
ATOM     26  C3  UNL     1       0.622  71.590 133.352  0.00  0.00    +0.000 C 
ATOM     27  C4  UNL     1       1.157  71.901 134.691  0.00  0.00    +0.000 C 
ATOM     28  O1  UNL     1       1.026  73.051 135.186  0.00  0.00    +0.000 OA
ATOM     29  O2  UNL     1       1.804  70.901 135.419  0.00  0.00    +0.000 OA
ATOM     30  C5  UNL     1       2.159  69.658 134.810  0.00  0.00    +0.000 C 
ATOM     31  C6  UNL     1       1.025  69.194 133.864  0.00  0.00    +0.000 C 
BRANCH  26  32
ATOM     32  O6  UNL     1       0.149  72.611 132.525  0.00  0.00    +0.000 OA
ATOM     33  H38 UNL     1       0.769  73.137 131.922  0.00  0.00    +0.000 HD
ENDBRANCH  26  32
ENDBRANCH  22  30
ENDBRANCH   1  22
BRANCH  18  34
ATOM     34  O4  UNL     1      11.161  72.722 132.969  0.00  0.00    +0.000 OA
ATOM     35  H31 UNL     1      11.756  73.023 132.234  0.00  0.00    +0.000 HD
ENDBRANCH  18  34
TORSDOF 4
ENDMDL
MODEL 6
REMARK VINA RESULT:      -4.6      2.330      3.017
REMARK  Name = .\Withaferin A.pdb
REMARK  8 active torsions:
REMARK  status: ('A' for Active; 'I' for Inactive)
REMARK    1  A    between atoms: C1_1  and  C2_2
REMARK    2  A    between atoms: C3_3  and  O6_33
REMARK    3  A    between atoms: C5_7  and  C7_9
REMARK    4  A    between atoms: C7_9  and  C8_10
REMARK    5  A    between atoms: C7_9  and  C9_11
REMARK    6  A    between atoms: C13_15  and  C27_32
REMARK    7  A    between atoms: C21_23  and  C26_30
REMARK    8  A    between atoms: C25_28  and  O4_29
REMARK                            x       y       z     vdW  Elec       q    Type
REMARK                         _______ _______ _______ _____ _____    ______ ____
ROOT
ATOM      1  C9  UNL     1       2.573  70.719 132.349  0.00  0.00    +0.000 C 
ATOM      2  C10 UNL     1       2.442  72.234 132.570  0.00  0.00    +0.000 C 
ATOM      3  C11 UNL     1       3.643  72.892 131.903  0.00  0.00    +0.000 C 
ATOM      4  C12 UNL     1       4.470  71.771 131.258  0.00  0.00    +0.000 C 
ATOM      5  C13 UNL     1       4.091  70.492 132.040  0.00  0.00    +0.000 C 
ATOM      6  C14 UNL     1       4.932  70.416 133.341  0.00  0.00    +0.000 C 
ATOM      7  C15 UNL     1       6.428  70.443 133.056  0.00  0.00    +0.000 C 
ATOM      8  C16 UNL     1       6.896  71.757 132.378  0.00  0.00    +0.000 C 
ATOM      9  C17 UNL     1       5.992  72.149 131.162  0.00  0.00    +0.000 C 
ATOM     10  C18 UNL     1       6.642  71.757 129.820  0.00  0.00    +0.000 C 
ATOM     11  C19 UNL     1       7.985  72.476 129.611  0.00  0.00    +0.000 C 
ATOM     12  C20 UNL     1       8.906  72.514 130.772  0.00  0.00    +0.000 C 
ATOM     13  C21 UNL     1       8.483  71.775 132.090  0.00  0.00    +0.000 C 
ATOM     14  C22 UNL     1       9.204  72.453 133.251  0.00  0.00    +0.000 C 
ATOM     15  O3  UNL     1       8.952  72.129 134.403  0.00  0.00    +0.000 OA
ATOM     16  C23 UNL     1      10.250  73.512 133.000  0.00  0.00    +0.000 C 
ATOM     17  C24 UNL     1      11.166  73.078 131.849  0.00  0.00    +0.000 C 
ATOM     18  C25 UNL     1      10.396  72.853 130.524  0.00  0.00    +0.000 C 
ATOM     19  C26 UNL     1       9.077  70.343 131.968  0.00  0.00    +0.000 C 
ATOM     20  O5  UNL     1       8.111  73.625 130.429  0.00  0.00    +0.000 OA
ATOM     21  C27 UNL     1       4.303  69.241 131.146  0.00  0.00    +0.000 C 
ENDROOT
BRANCH   1  22
ATOM     22  C7  UNL     1       1.916  69.892 133.516  0.00  0.00    +0.000 C 
ATOM     23  C8  UNL     1       0.677  69.099 133.048  0.00  0.00    +0.000 C 
BRANCH  22  30
ATOM     24  C1  UNL     1       3.235  72.484 137.797  0.00  0.00    +0.000 C 
ATOM     25  C2  UNL     1       2.376  72.325 136.573  0.00  0.00    +0.000 C 
ATOM     26  C3  UNL     1       1.289  73.101 136.404  0.00  0.00    +0.000 C 
ATOM     27  C4  UNL     1       0.455  72.921 135.201  0.00  0.00    +0.000 C 
ATOM     28  O1  UNL     1      -0.456  73.744 134.918  0.00  0.00    +0.000 OA
ATOM     29  O2  UNL     1       0.691  71.833 134.360  0.00  0.00    +0.000 OA
ATOM     30  C5  UNL     1       1.563  70.771 134.756  0.00  0.00    +0.000 C 
ATOM     31  C6  UNL     1       2.795  71.350 135.492  0.00  0.00    +0.000 C 
BRANCH  26  32
ATOM     32  O6  UNL     1       0.951  74.061 137.361  0.00  0.00    +0.000 OA
ATOM     33  H38 UNL     1       0.982  75.052 137.154  0.00  0.00    +0.000 HD
ENDBRANCH  26  32
ENDBRANCH  22  30
ENDBRANCH   1  22
BRANCH  18  34
ATOM     34  O4  UNL     1      10.990  71.818 129.785  0.00  0.00    +0.000 OA
ATOM     35  H31 UNL     1      11.945  72.062 129.667  0.00  0.00    +0.000 HD
ENDBRANCH  18  34
TORSDOF 4
ENDMDL
MODEL 7
REMARK VINA RESULT:      -3.8      2.225      3.808
REMARK  Name = .\Withaferin A.pdb
REMARK  8 active torsions:
REMARK  status: ('A' for Active; 'I' for Inactive)
REMARK    1  A    between atoms: C1_1  and  C2_2
REMARK    2  A    between atoms: C3_3  and  O6_33
REMARK    3  A    between atoms: C5_7  and  C7_9
REMARK    4  A    between atoms: C7_9  and  C8_10
REMARK    5  A    between atoms: C7_9  and  C9_11
REMARK    6  A    between atoms: C13_15  and  C27_32
REMARK    7  A    between atoms: C21_23  and  C26_30
REMARK    8  A    between atoms: C25_28  and  O4_29
REMARK                            x       y       z     vdW  Elec       q    Type
REMARK                         _______ _______ _______ _____ _____    ______ ____
ROOT
ATOM      1  C9  UNL     1       2.885  70.137 132.369  0.00  0.00    +0.000 C 
ATOM      2  C10 UNL     1       3.161  69.217 131.170  0.00  0.00    +0.000 C 
ATOM      3  C11 UNL     1       4.667  69.202 130.950  0.00  0.00    +0.000 C 
ATOM      4  C12 UNL     1       5.290  70.087 132.039  0.00  0.00    +0.000 C 
ATOM      5  C13 UNL     1       4.156  71.045 132.474  0.00  0.00    +0.000 C 
ATOM      6  C14 UNL     1       4.086  72.241 131.489  0.00  0.00    +0.000 C 
ATOM      7  C15 UNL     1       5.410  72.987 131.402  0.00  0.00    +0.000 C 
ATOM      8  C16 UNL     1       6.569  72.113 130.855  0.00  0.00    +0.000 C 
ATOM      9  C17 UNL     1       6.648  70.723 131.570  0.00  0.00    +0.000 C 
ATOM     10  C18 UNL     1       7.746  70.701 132.652  0.00  0.00    +0.000 C 
ATOM     11  C19 UNL     1       9.138  70.959 132.050  0.00  0.00    +0.000 C 
ATOM     12  C20 UNL     1       9.242  72.063 131.065  0.00  0.00    +0.000 C 
ATOM     13  C21 UNL     1       7.962  72.919 130.760  0.00  0.00    +0.000 C 
ATOM     14  C22 UNL     1       8.121  73.500 129.359  0.00  0.00    +0.000 C 
ATOM     15  O3  UNL     1       7.200  74.118 128.843  0.00  0.00    +0.000 OA
ATOM     16  C23 UNL     1       9.415  73.345 128.598  0.00  0.00    +0.000 C 
ATOM     17  C24 UNL     1      10.604  73.605 129.532  0.00  0.00    +0.000 C 
ATOM     18  C25 UNL     1      10.644  72.628 130.734  0.00  0.00    +0.000 C 
ATOM     19  C26 UNL     1       8.021  74.115 131.752  0.00  0.00    +0.000 C 
ATOM     20  O5  UNL     1       9.172  70.718 130.656  0.00  0.00    +0.000 OA
ATOM     21  C27 UNL     1       4.393  71.517 133.934  0.00  0.00    +0.000 C 
ENDROOT
BRANCH   1  22
ATOM     22  C7  UNL     1       1.476  70.833 132.271  0.00  0.00    +0.000 C 
ATOM     23  C8  UNL     1       1.533  72.165 131.493  0.00  0.00    +0.000 C 
BRANCH  22  30
ATOM     24  C1  UNL     1       0.456  69.333 137.118  0.00  0.00    +0.000 C 
ATOM     25  C2  UNL     1       0.722  70.417 136.110  0.00  0.00    +0.000 C 
ATOM     26  C3  UNL     1       0.545  71.709 136.442  0.00  0.00    +0.000 C 
ATOM     27  C4  UNL     1       0.801  72.754 135.434  0.00  0.00    +0.000 C 
ATOM     28  O1  UNL     1       0.824  73.971 135.758  0.00  0.00    +0.000 OA
ATOM     29  O2  UNL     1       1.037  72.385 134.109  0.00  0.00    +0.000 OA
ATOM     30  C5  UNL     1       0.808  71.045 133.666  0.00  0.00    +0.000 C 
ATOM     31  C6  UNL     1       1.278  70.046 134.750  0.00  0.00    +0.000 C 
BRANCH  26  32
ATOM     32  O6  UNL     1       0.115  72.055 137.725  0.00  0.00    +0.000 OA
ATOM     33  H38 UNL     1       0.217  72.996 138.084  0.00  0.00    +0.000 HD
ENDBRANCH  26  32
ENDBRANCH  22  30
ENDBRANCH   1  22
BRANCH  18  34
ATOM     34  O4  UNL     1      11.164  73.274 131.867  0.00  0.00    +0.000 OA
ATOM     35  H31 UNL     1      11.726  72.608 132.342  0.00  0.00    +0.000 HD
ENDBRANCH  18  34
TORSDOF 4
ENDMDL
MODEL 8
REMARK VINA RESULT:      -3.7      2.634      4.517
REMARK  Name = .\Withaferin A.pdb
REMARK  8 active torsions:
REMARK  status: ('A' for Active; 'I' for Inactive)
REMARK    1  A    between atoms: C1_1  and  C2_2
REMARK    2  A    between atoms: C3_3  and  O6_33
REMARK    3  A    between atoms: C5_7  and  C7_9
REMARK    4  A    between atoms: C7_9  and  C8_10
REMARK    5  A    between atoms: C7_9  and  C9_11
REMARK    6  A    between atoms: C13_15  and  C27_32
REMARK    7  A    between atoms: C21_23  and  C26_30
REMARK    8  A    between atoms: C25_28  and  O4_29
REMARK                            x       y       z     vdW  Elec       q    Type
REMARK                         _______ _______ _______ _____ _____    ______ ____
ROOT
ATOM      1  C9  UNL     1       5.964  70.727 134.544  0.00  0.00    +0.000 C 
ATOM      2  C10 UNL     1       7.085  69.984 135.287  0.00  0.00    +0.000 C 
ATOM      3  C11 UNL     1       8.329  70.051 134.412  0.00  0.00    +0.000 C 
ATOM      4  C12 UNL     1       7.956  70.863 133.162  0.00  0.00    +0.000 C 
ATOM      5  C13 UNL     1       6.419  70.736 133.046  0.00  0.00    +0.000 C 
ATOM      6  C14 UNL     1       6.065  69.405 132.334  0.00  0.00    +0.000 C 
ATOM      7  C15 UNL     1       6.714  69.301 130.960  0.00  0.00    +0.000 C 
ATOM      8  C16 UNL     1       8.264  69.300 131.016  0.00  0.00    +0.000 C 
ATOM      9  C17 UNL     1       8.823  70.450 131.918  0.00  0.00    +0.000 C 
ATOM     10  C18 UNL     1       9.306  71.649 131.077  0.00  0.00    +0.000 C 
ATOM     11  C19 UNL     1      10.446  71.250 130.126  0.00  0.00    +0.000 C 
ATOM     12  C20 UNL     1      10.275  69.981 129.379  0.00  0.00    +0.000 C 
ATOM     13  C21 UNL     1       8.937  69.181 129.556  0.00  0.00    +0.000 C 
ATOM     14  C22 UNL     1       9.232  67.716 129.247  0.00  0.00    +0.000 C 
ATOM     15  O3  UNL     1       8.370  66.867 129.424  0.00  0.00    +0.000 OA
ATOM     16  C23 UNL     1      10.574  67.295 128.702  0.00  0.00    +0.000 C 
ATOM     17  C24 UNL     1      11.027  68.277 127.613  0.00  0.00    +0.000 C 
ATOM     18  C25 UNL     1      11.166  69.728 128.138  0.00  0.00    +0.000 C 
ATOM     19  C26 UNL     1       7.997  69.696 128.429  0.00  0.00    +0.000 C 
ATOM     20  O5  UNL     1      11.085  70.052 130.529  0.00  0.00    +0.000 OA
ATOM     21  C27 UNL     1       5.843  71.963 132.289  0.00  0.00    +0.000 C 
ENDROOT
BRANCH   1  22
ATOM     22  C7  UNL     1       4.541  70.150 134.888  0.00  0.00    +0.000 C 
ATOM     23  C8  UNL     1       4.447  68.631 134.634  0.00  0.00    +0.000 C 
BRANCH  22  30
ATOM     24  C1  UNL     1       0.611  70.283 131.523  0.00  0.00    +0.000 C 
ATOM     25  C2  UNL     1       1.257  70.738 132.803  0.00  0.00    +0.000 C 
ATOM     26  C3  UNL     1       0.737  71.769 133.495  0.00  0.00    +0.000 C 
ATOM     27  C4  UNL     1       1.393  72.204 134.742  0.00  0.00    +0.000 C 
ATOM     28  O1  UNL     1       0.837  73.036 135.506  0.00  0.00    +0.000 OA
ATOM     29  O2  UNL     1       2.637  71.673 135.083  0.00  0.00    +0.000 OA
ATOM     30  C5  UNL     1       3.389  70.898 134.146  0.00  0.00    +0.000 C 
ATOM     31  C6  UNL     1       2.441  69.968 133.352  0.00  0.00    +0.000 C 
BRANCH  26  32
ATOM     32  O6  UNL     1      -0.407  72.423 133.033  0.00  0.00    +0.000 OA
ATOM     33  H38 UNL     1      -0.765  72.272 132.097  0.00  0.00    +0.000 HD
ENDBRANCH  26  32
ENDBRANCH  22  30
ENDBRANCH   1  22
BRANCH  18  34
ATOM     34  O4  UNL     1      10.827  70.644 127.130  0.00  0.00    +0.000 OA
ATOM     35  H31 UNL     1       9.841  70.606 127.028  0.00  0.00    +0.000 HD
ENDBRANCH  18  34
TORSDOF 4
ENDMDL
MODEL 9
REMARK VINA RESULT:      -3.6      2.010      3.938
REMARK  Name = .\Withaferin A.pdb
REMARK  8 active torsions:
REMARK  status: ('A' for Active; 'I' for Inactive)
REMARK    1  A    between atoms: C1_1  and  C2_2
REMARK    2  A    between atoms: C3_3  and  O6_33
REMARK    3  A    between atoms: C5_7  and  C7_9
REMARK    4  A    between atoms: C7_9  and  C8_10
REMARK    5  A    between atoms: C7_9  and  C9_11
REMARK    6  A    between atoms: C13_15  and  C27_32
REMARK    7  A    between atoms: C21_23  and  C26_30
REMARK    8  A    between atoms: C25_28  and  O4_29
REMARK                            x       y       z     vdW  Elec       q    Type
REMARK                         _______ _______ _______ _____ _____    ______ ____
ROOT
ATOM      1  C9  UNL     1       3.582  68.498 136.113  0.00  0.00    +0.000 C 
ATOM      2  C10 UNL     1       4.576  67.363 136.405  0.00  0.00    +0.000 C 
ATOM      3  C11 UNL     1       5.964  67.875 136.043  0.00  0.00    +0.000 C 
ATOM      4  C12 UNL     1       5.798  69.326 135.568  0.00  0.00    +0.000 C 
ATOM      5  C13 UNL     1       4.328  69.429 135.099  0.00  0.00    +0.000 C 
ATOM      6  C14 UNL     1       4.212  68.899 133.646  0.00  0.00    +0.000 C 
ATOM      7  C15 UNL     1       5.130  69.648 132.690  0.00  0.00    +0.000 C 
ATOM      8  C16 UNL     1       6.633  69.485 133.033  0.00  0.00    +0.000 C 
ATOM      9  C17 UNL     1       6.923  69.739 134.551  0.00  0.00    +0.000 C 
ATOM     10  C18 UNL     1       7.486  71.154 134.794  0.00  0.00    +0.000 C 
ATOM     11  C19 UNL     1       8.818  71.367 134.057  0.00  0.00    +0.000 C 
ATOM     12  C20 UNL     1       8.884  70.892 132.653  0.00  0.00    +0.000 C 
ATOM     13  C21 UNL     1       7.593  70.277 132.008  0.00  0.00    +0.000 C 
ATOM     14  C22 UNL     1       8.039  69.333 130.895  0.00  0.00    +0.000 C 
ATOM     15  O3  UNL     1       7.217  68.642 130.311  0.00  0.00    +0.000 OA
ATOM     16  C23 UNL     1       9.489  69.253 130.483  0.00  0.00    +0.000 C 
ATOM     17  C24 UNL     1      10.086  70.663 130.397  0.00  0.00    +0.000 C 
ATOM     18  C25 UNL     1      10.022  71.422 131.746  0.00  0.00    +0.000 C 
ATOM     19  C26 UNL     1       6.868  71.469 131.321  0.00  0.00    +0.000 C 
ATOM     20  O5  UNL     1       9.439  70.143 133.709  0.00  0.00    +0.000 OA
ATOM     21  C27 UNL     1       3.837  70.897 135.215  0.00  0.00    +0.000 C 
ENDROOT
BRANCH   1  22
ATOM     22  C7  UNL     1       2.159  67.952 135.718  0.00  0.00    +0.000 C 
ATOM     23  C8  UNL     1       2.234  66.828 134.664  0.00  0.00    +0.000 C 
BRANCH  22  30
ATOM     24  C1  UNL     1       0.294  72.774 135.972  0.00  0.00    +0.000 C 
ATOM     25  C2  UNL     1       0.652  71.547 135.180  0.00  0.00    +0.000 C 
ATOM     26  C3  UNL     1       0.270  71.436 133.894  0.00  0.00    +0.000 C 
ATOM     27  C4  UNL     1       0.623  70.219 133.139  0.00  0.00    +0.000 C 
ATOM     28  O1  UNL     1       0.446  70.158 131.894  0.00  0.00    +0.000 OA
ATOM     29  O2  UNL     1       1.173  69.129 133.815  0.00  0.00    +0.000 OA
ATOM     30  C5  UNL     1       1.190  69.080 135.243  0.00  0.00    +0.000 C 
ATOM     31  C6  UNL     1       1.521  70.480 135.814  0.00  0.00    +0.000 C 
BRANCH  26  32
ATOM     32  O6  UNL     1      -0.458  72.460 133.283  0.00  0.00    +0.000 OA
ATOM     33  H38 UNL     1      -0.083  72.989 132.506  0.00  0.00    +0.000 HD
ENDBRANCH  26  32
ENDBRANCH  22  30
ENDBRANCH   1  22
BRANCH  18  34
ATOM     34  O4  UNL     1       9.834  72.795 131.523  0.00  0.00    +0.000 OA
ATOM     35  H31 UNL     1      10.734  73.186 131.371  0.00  0.00    +0.000 HD
ENDBRANCH  18  34
TORSDOF 4
ENDMDL
