MODEL 1
REMARK VINA RESULT:      -7.5      0.000      0.000
REMARK  Name = .\Withaferin A.pdb
REMARK  8 active torsions:
REMARK  status: ('A' for Active; 'I' for Inactive)
REMARK    1  A    between atoms: C1_1  and  C2_2
REMARK    2  A    between atoms: C3_3  and  O6_33
REMARK    3  A    between atoms: C5_7  and  C7_9
REMARK    4  A    between atoms: C7_9  and  C8_10
REMARK    5  A    between atoms: C7_9  and  C9_11
REMARK    6  A    between atoms: C13_15  and  C27_32
REMARK    7  A    between atoms: C21_23  and  C26_30
REMARK    8  A    between atoms: C25_28  and  O4_29
REMARK                            x       y       z     vdW  Elec       q    Type
REMARK                         _______ _______ _______ _____ _____    ______ ____
ROOT
ATOM      1  C9  UNL     1       1.756  78.294 105.559  0.00  0.00    +0.000 C 
ATOM      2  C10 UNL     1       0.631  77.334 105.142  0.00  0.00    +0.000 C 
ATOM      3  C11 UNL     1       1.277  76.185 104.381  0.00  0.00    +0.000 C 
ATOM      4  C12 UNL     1       2.791  76.444 104.374  0.00  0.00    +0.000 C 
ATOM      5  C13 UNL     1       2.937  77.969 104.583  0.00  0.00    +0.000 C 
ATOM      6  C14 UNL     1       2.769  78.694 103.223  0.00  0.00    +0.000 C 
ATOM      7  C15 UNL     1       3.768  78.200 102.185  0.00  0.00    +0.000 C 
ATOM      8  C16 UNL     1       3.595  76.698 101.838  0.00  0.00    +0.000 C 
ATOM      9  C17 UNL     1       3.487  75.805 103.119  0.00  0.00    +0.000 C 
ATOM     10  C18 UNL     1       4.826  75.110 103.442  0.00  0.00    +0.000 C 
ATOM     11  C19 UNL     1       5.270  74.181 102.301  0.00  0.00    +0.000 C 
ATOM     12  C20 UNL     1       5.152  74.716 100.923  0.00  0.00    +0.000 C 
ATOM     13  C21 UNL     1       4.653  76.191 100.732  0.00  0.00    +0.000 C 
ATOM     14  C22 UNL     1       4.027  76.290  99.344  0.00  0.00    +0.000 C 
ATOM     15  O3  UNL     1       3.461  77.317  98.998  0.00  0.00    +0.000 OA
ATOM     16  C23 UNL     1       4.114  75.138  98.373  0.00  0.00    +0.000 C 
ATOM     17  C24 UNL     1       5.529  74.546  98.391  0.00  0.00    +0.000 C 
ATOM     18  C25 UNL     1       5.936  74.014  99.788  0.00  0.00    +0.000 C 
ATOM     19  C26 UNL     1       5.941  77.062 100.706  0.00  0.00    +0.000 C 
ATOM     20  O5  UNL     1       4.196  73.826 101.450  0.00  0.00    +0.000 OA
ATOM     21  C27 UNL     1       4.310  78.285 105.236  0.00  0.00    +0.000 C 
ENDROOT
BRANCH   1  22
ATOM     22  C7  UNL     1       1.259  79.783 105.659  0.00  0.00    +0.000 C 
ATOM     23  C8  UNL     1       2.224  80.772 104.971  0.00  0.00    +0.000 C 
BRANCH  22  30
ATOM     24  C1  UNL     1       1.217  83.341 109.418  0.00  0.00    +0.000 C 
ATOM     25  C2  UNL     1       0.620  82.132 108.750  0.00  0.00    +0.000 C 
ATOM     26  C3  UNL     1      -0.360  81.438 109.357  0.00  0.00    +0.000 C 
ATOM     27  C4  UNL     1      -0.923  80.250 108.689  0.00  0.00    +0.000 C 
ATOM     28  O1  UNL     1      -1.957  79.688 109.135  0.00  0.00    +0.000 OA
ATOM     29  O2  UNL     1      -0.306  79.755 107.538  0.00  0.00    +0.000 OA
ATOM     30  C5  UNL     1       0.978  80.230 107.129  0.00  0.00    +0.000 C 
ATOM     31  C6  UNL     1       1.070  81.758 107.352  0.00  0.00    +0.000 C 
BRANCH  26  32
ATOM     32  O6  UNL     1      -0.835  81.835 110.610  0.00  0.00    +0.000 OA
ATOM     33  H38 UNL     1      -1.825  81.939 110.795  0.00  0.00    +0.000 HD
ENDBRANCH  26  32
ENDBRANCH  22  30
ENDBRANCH   1  22
BRANCH  18  34
ATOM     34  O4  UNL     1       7.313  74.196  99.994  0.00  0.00    +0.000 OA
ATOM     35  H31 UNL     1       7.410  74.704 100.842  0.00  0.00    +0.000 HD
ENDBRANCH  18  34
TORSDOF 4
ENDMDL
MODEL 2
REMARK VINA RESULT:      -7.5      1.923      3.533
REMARK  Name = .\Withaferin A.pdb
REMARK  8 active torsions:
REMARK  status: ('A' for Active; 'I' for Inactive)
REMARK    1  A    between atoms: C1_1  and  C2_2
REMARK    2  A    between atoms: C3_3  and  O6_33
REMARK    3  A    between atoms: C5_7  and  C7_9
REMARK    4  A    between atoms: C7_9  and  C8_10
REMARK    5  A    between atoms: C7_9  and  C9_11
REMARK    6  A    between atoms: C13_15  and  C27_32
REMARK    7  A    between atoms: C21_23  and  C26_30
REMARK    8  A    between atoms: C25_28  and  O4_29
REMARK                            x       y       z     vdW  Elec       q    Type
REMARK                         _______ _______ _______ _____ _____    ______ ____
ROOT
ATOM      1  C9  UNL     1       2.156  78.351 103.824  0.00  0.00    +0.000 C 
ATOM      2  C10 UNL     1       3.503  78.961 104.242  0.00  0.00    +0.000 C 
ATOM      3  C11 UNL     1       4.540  78.505 103.225  0.00  0.00    +0.000 C 
ATOM      4  C12 UNL     1       3.803  77.651 102.183  0.00  0.00    +0.000 C 
ATOM      5  C13 UNL     1       2.536  77.139 102.908  0.00  0.00    +0.000 C 
ATOM      6  C14 UNL     1       2.892  75.882 103.743  0.00  0.00    +0.000 C 
ATOM      7  C15 UNL     1       3.497  74.779 102.886  0.00  0.00    +0.000 C 
ATOM      8  C16 UNL     1       4.839  75.187 102.224  0.00  0.00    +0.000 C 
ATOM      9  C17 UNL     1       4.752  76.585 101.525  0.00  0.00    +0.000 C 
ATOM     10  C18 UNL     1       4.563  76.448 100.001  0.00  0.00    +0.000 C 
ATOM     11  C19 UNL     1       5.744  75.710  99.349  0.00  0.00    +0.000 C 
ATOM     12  C20 UNL     1       6.227  74.490 100.038  0.00  0.00    +0.000 C 
ATOM     13  C21 UNL     1       5.472  74.007 101.326  0.00  0.00    +0.000 C 
ATOM     14  C22 UNL     1       6.460  73.201 102.165  0.00  0.00    +0.000 C 
ATOM     15  O3  UNL     1       6.141  72.808 103.278  0.00  0.00    +0.000 OA
ATOM     16  C23 UNL     1       7.829  72.858 101.631  0.00  0.00    +0.000 C 
ATOM     17  C24 UNL     1       7.721  72.407 100.169  0.00  0.00    +0.000 C 
ATOM     18  C25 UNL     1       7.118  73.498  99.250  0.00  0.00    +0.000 C 
ATOM     19  C26 UNL     1       4.393  73.007 100.820  0.00  0.00    +0.000 C 
ATOM     20  O5  UNL     1       6.900  75.720 100.167  0.00  0.00    +0.000 OA
ATOM     21  C27 UNL     1       1.417  76.843 101.873  0.00  0.00    +0.000 C 
ENDROOT
BRANCH   1  22
ATOM     22  C7  UNL     1       1.216  78.088 105.059  0.00  0.00    +0.000 C 
ATOM     23  C8  UNL     1       0.175  76.983 104.778  0.00  0.00    +0.000 C 
BRANCH  22  30
ATOM     24  C1  UNL     1       0.694  81.969 108.443  0.00  0.00    +0.000 C 
ATOM     25  C2  UNL     1       0.615  81.434 107.039  0.00  0.00    +0.000 C 
ATOM     26  C3  UNL     1       0.046  82.169 106.066  0.00  0.00    +0.000 C 
ATOM     27  C4  UNL     1      -0.030  81.619 104.699  0.00  0.00    +0.000 C 
ATOM     28  O1  UNL     1      -0.384  82.343 103.732  0.00  0.00    +0.000 OA
ATOM     29  O2  UNL     1       0.312  80.285 104.477  0.00  0.00    +0.000 OA
ATOM     30  C5  UNL     1       0.510  79.383 105.569  0.00  0.00    +0.000 C 
ATOM     31  C6  UNL     1       1.262  80.103 106.714  0.00  0.00    +0.000 C 
BRANCH  26  32
ATOM     32  O6  UNL     1      -0.473  83.434 106.348  0.00  0.00    +0.000 OA
ATOM     33  H38 UNL     1      -0.480  83.808 107.289  0.00  0.00    +0.000 HD
ENDBRANCH  26  32
ENDBRANCH  22  30
ENDBRANCH   1  22
BRANCH  18  34
ATOM     34  O4  UNL     1       6.359  72.907  98.227  0.00  0.00    +0.000 OA
ATOM     35  H31 UNL     1       6.838  73.086  97.376  0.00  0.00    +0.000 HD
ENDBRANCH  18  34
TORSDOF 4
ENDMDL
MODEL 3
REMARK VINA RESULT:      -6.9      7.703      9.970
REMARK  Name = .\Withaferin A.pdb
REMARK  8 active torsions:
REMARK  status: ('A' for Active; 'I' for Inactive)
REMARK    1  A    between atoms: C1_1  and  C2_2
REMARK    2  A    between atoms: C3_3  and  O6_33
REMARK    3  A    between atoms: C5_7  and  C7_9
REMARK    4  A    between atoms: C7_9  and  C8_10
REMARK    5  A    between atoms: C7_9  and  C9_11
REMARK    6  A    between atoms: C13_15  and  C27_32
REMARK    7  A    between atoms: C21_23  and  C26_30
REMARK    8  A    between atoms: C25_28  and  O4_29
REMARK                            x       y       z     vdW  Elec       q    Type
REMARK                         _______ _______ _______ _____ _____    ______ ____
ROOT
ATOM      1  C9  UNL     1       5.006  83.457 113.825  0.00  0.00    +0.000 C 
ATOM      2  C10 UNL     1       4.847  81.932 113.718  0.00  0.00    +0.000 C 
ATOM      3  C11 UNL     1       6.089  81.398 113.017  0.00  0.00    +0.000 C 
ATOM      4  C12 UNL     1       7.001  82.601 112.738  0.00  0.00    +0.000 C 
ATOM      5  C13 UNL     1       6.056  83.826 112.724  0.00  0.00    +0.000 C 
ATOM      6  C14 UNL     1       5.397  83.952 111.326  0.00  0.00    +0.000 C 
ATOM      7  C15 UNL     1       6.432  84.065 110.215  0.00  0.00    +0.000 C 
ATOM      8  C16 UNL     1       7.338  82.812 110.095  0.00  0.00    +0.000 C 
ATOM      9  C17 UNL     1       7.913  82.364 111.480  0.00  0.00    +0.000 C 
ATOM     10  C18 UNL     1       9.367  82.839 111.673  0.00  0.00    +0.000 C 
ATOM     11  C19 UNL     1      10.301  82.248 110.604  0.00  0.00    +0.000 C 
ATOM     12  C20 UNL     1       9.809  82.270 109.206  0.00  0.00    +0.000 C 
ATOM     13  C21 UNL     1       8.423  82.942 108.909  0.00  0.00    +0.000 C 
ATOM     14  C22 UNL     1       7.867  82.309 107.637  0.00  0.00    +0.000 C 
ATOM     15  O3  UNL     1       6.738  82.587 107.257  0.00  0.00    +0.000 OA
ATOM     16  C23 UNL     1       8.701  81.354 106.819  0.00  0.00    +0.000 C 
ATOM     17  C24 UNL     1      10.132  81.891 106.688  0.00  0.00    +0.000 C 
ATOM     18  C25 UNL     1      10.830  82.071 108.059  0.00  0.00    +0.000 C 
ATOM     19  C26 UNL     1       8.748  84.424 108.568  0.00  0.00    +0.000 C 
ATOM     20  O5  UNL     1       9.750  81.099 109.987  0.00  0.00    +0.000 OA
ATOM     21  C27 UNL     1       6.845  85.107 113.105  0.00  0.00    +0.000 C 
ENDROOT
BRANCH   1  22
ATOM     22  C7  UNL     1       3.618  84.199 113.812  0.00  0.00    +0.000 C 
ATOM     23  C8  UNL     1       2.837  84.008 115.129  0.00  0.00    +0.000 C 
BRANCH  22  30
ATOM     24  C1  UNL     1       0.182  81.105 111.486  0.00  0.00    +0.000 C 
ATOM     25  C2  UNL     1       0.767  82.470 111.723  0.00  0.00    +0.000 C 
ATOM     26  C3  UNL     1       0.399  83.508 110.949  0.00  0.00    +0.000 C 
ATOM     27  C4  UNL     1       0.993  84.836 111.193  0.00  0.00    +0.000 C 
ATOM     28  O1  UNL     1       0.542  85.860 110.616  0.00  0.00    +0.000 OA
ATOM     29  O2  UNL     1       2.058  84.956 112.087  0.00  0.00    +0.000 OA
ATOM     30  C5  UNL     1       2.731  83.800 112.591  0.00  0.00    +0.000 C 
ATOM     31  C6  UNL     1       1.702  82.685 112.896  0.00  0.00    +0.000 C 
BRANCH  26  32
ATOM     32  O6  UNL     1      -0.530  83.328 109.922  0.00  0.00    +0.000 OA
ATOM     33  H38 UNL     1      -0.465  82.551 109.276  0.00  0.00    +0.000 HD
ENDBRANCH  26  32
ENDBRANCH  22  30
ENDBRANCH   1  22
BRANCH  18  34
ATOM     34  O4  UNL     1      11.703  83.170 108.020  0.00  0.00    +0.000 OA
ATOM     35  H31 UNL     1      12.542  82.885 108.467  0.00  0.00    +0.000 HD
ENDBRANCH  18  34
TORSDOF 4
ENDMDL
MODEL 4
REMARK VINA RESULT:      -6.8      1.541      9.759
REMARK  Name = .\Withaferin A.pdb
REMARK  8 active torsions:
REMARK  status: ('A' for Active; 'I' for Inactive)
REMARK    1  A    between atoms: C1_1  and  C2_2
REMARK    2  A    between atoms: C3_3  and  O6_33
REMARK    3  A    between atoms: C5_7  and  C7_9
REMARK    4  A    between atoms: C7_9  and  C8_10
REMARK    5  A    between atoms: C7_9  and  C9_11
REMARK    6  A    between atoms: C13_15  and  C27_32
REMARK    7  A    between atoms: C21_23  and  C26_30
REMARK    8  A    between atoms: C25_28  and  O4_29
REMARK                            x       y       z     vdW  Elec       q    Type
REMARK                         _______ _______ _______ _____ _____    ______ ____
ROOT
ATOM      1  C9  UNL     1       2.223  77.483 102.577  0.00  0.00    +0.000 C 
ATOM      2  C10 UNL     1       0.733  77.318 102.235  0.00  0.00    +0.000 C 
ATOM      3  C11 UNL     1      -0.002  78.507 102.837  0.00  0.00    +0.000 C 
ATOM      4  C12 UNL     1       1.054  79.396 103.510  0.00  0.00    +0.000 C 
ATOM      5  C13 UNL     1       2.243  78.452 103.807  0.00  0.00    +0.000 C 
ATOM      6  C14 UNL     1       1.980  77.695 105.134  0.00  0.00    +0.000 C 
ATOM      7  C15 UNL     1       1.752  78.648 106.300  0.00  0.00    +0.000 C 
ATOM      8  C16 UNL     1       0.499  79.543 106.120  0.00  0.00    +0.000 C 
ATOM      9  C17 UNL     1       0.451  80.216 104.707  0.00  0.00    +0.000 C 
ATOM     10  C18 UNL     1       0.932  81.680 104.757  0.00  0.00    +0.000 C 
ATOM     11  C19 UNL     1       0.044  82.536 105.675  0.00  0.00    +0.000 C 
ATOM     12  C20 UNL     1      -0.323  81.945 106.985  0.00  0.00    +0.000 C 
ATOM     13  C21 UNL     1       0.266  80.541 107.365  0.00  0.00    +0.000 C 
ATOM     14  C22 UNL     1      -0.691  79.896 108.363  0.00  0.00    +0.000 C 
ATOM     15  O3  UNL     1      -0.511  78.742 108.729  0.00  0.00    +0.000 OA
ATOM     16  C23 UNL     1      -1.856  80.670 108.931  0.00  0.00    +0.000 C 
ATOM     17  C24 UNL     1      -1.407  82.088 109.307  0.00  0.00    +0.000 C 
ATOM     18  C25 UNL     1      -0.859  82.882 108.095  0.00  0.00    +0.000 C 
ATOM     19  C26 UNL     1       1.582  80.841 108.136  0.00  0.00    +0.000 C 
ATOM     20  O5  UNL     1      -1.222  81.942 105.901  0.00  0.00    +0.000 OA
ATOM     21  C27 UNL     1       3.564  79.265 103.862  0.00  0.00    +0.000 C 
ENDROOT
BRANCH   1  22
ATOM     22  C7  UNL     1       2.958  76.097 102.706  0.00  0.00    +0.000 C 
ATOM     23  C8  UNL     1       3.554  75.879 104.113  0.00  0.00    +0.000 C 
BRANCH  22  30
ATOM     24  C1  UNL     1       6.501  73.201 100.289  0.00  0.00    +0.000 C 
ATOM     25  C2  UNL     1       5.443  74.269 100.264  0.00  0.00    +0.000 C 
ATOM     26  C3  UNL     1       5.273  75.028  99.166  0.00  0.00    +0.000 C 
ATOM     27  C4  UNL     1       4.236  76.077  99.168  0.00  0.00    +0.000 C 
ATOM     28  O1  UNL     1       3.925  76.679  98.107  0.00  0.00    +0.000 OA
ATOM     29  O2  UNL     1       3.583  76.393 100.360  0.00  0.00    +0.000 OA
ATOM     30  C5  UNL     1       4.053  75.890 101.613  0.00  0.00    +0.000 C 
ATOM     31  C6  UNL     1       4.512  74.421 101.451  0.00  0.00    +0.000 C 
BRANCH  26  32
ATOM     32  O6  UNL     1       6.075  74.830  98.040  0.00  0.00    +0.000 OA
ATOM     33  H38 UNL     1       6.163  73.920  97.603  0.00  0.00    +0.000 HD
ENDBRANCH  26  32
ENDBRANCH  22  30
ENDBRANCH   1  22
BRANCH  18  34
ATOM     34  O4  UNL     1       0.166  83.749 108.505  0.00  0.00    +0.000 OA
ATOM     35  H31 UNL     1       0.663  84.012 107.687  0.00  0.00    +0.000 HD
ENDBRANCH  18  34
TORSDOF 4
ENDMDL
MODEL 5
REMARK VINA RESULT:      -6.8      1.708      9.488
REMARK  Name = .\Withaferin A.pdb
REMARK  8 active torsions:
REMARK  status: ('A' for Active; 'I' for Inactive)
REMARK    1  A    between atoms: C1_1  and  C2_2
REMARK    2  A    between atoms: C3_3  and  O6_33
REMARK    3  A    between atoms: C5_7  and  C7_9
REMARK    4  A    between atoms: C7_9  and  C8_10
REMARK    5  A    between atoms: C7_9  and  C9_11
REMARK    6  A    between atoms: C13_15  and  C27_32
REMARK    7  A    between atoms: C21_23  and  C26_30
REMARK    8  A    between atoms: C25_28  and  O4_29
REMARK                            x       y       z     vdW  Elec       q    Type
REMARK                         _______ _______ _______ _____ _____    ______ ____
ROOT
ATOM      1  C9  UNL     1       2.920  76.168 103.260  0.00  0.00    +0.000 C 
ATOM      2  C10 UNL     1       1.485  75.618 103.277  0.00  0.00    +0.000 C 
ATOM      3  C11 UNL     1       0.550  76.804 103.468  0.00  0.00    +0.000 C 
ATOM      4  C12 UNL     1       1.427  78.063 103.531  0.00  0.00    +0.000 C 
ATOM      5  C13 UNL     1       2.821  77.559 103.972  0.00  0.00    +0.000 C 
ATOM      6  C14 UNL     1       2.852  77.414 105.516  0.00  0.00    +0.000 C 
ATOM      7  C15 UNL     1       2.511  78.720 106.219  0.00  0.00    +0.000 C 
ATOM      8  C16 UNL     1       1.075  79.221 105.915  0.00  0.00    +0.000 C 
ATOM      9  C17 UNL     1       0.755  79.201 104.382  0.00  0.00    +0.000 C 
ATOM     10  C18 UNL     1       0.890  80.603 103.754  0.00  0.00    +0.000 C 
ATOM     11  C19 UNL     1      -0.090  81.603 104.389  0.00  0.00    +0.000 C 
ATOM     12  C20 UNL     1      -0.199  81.580 105.867  0.00  0.00    +0.000 C 
ATOM     13  C21 UNL     1       0.725  80.600 106.672  0.00  0.00    +0.000 C 
ATOM     14  C22 UNL     1       0.029  80.293 107.995  0.00  0.00    +0.000 C 
ATOM     15  O3  UNL     1       0.500  79.459 108.757  0.00  0.00    +0.000 OA
ATOM     16  C23 UNL     1      -1.229  81.023 108.395  0.00  0.00    +0.000 C 
ATOM     17  C24 UNL     1      -1.087  82.518 108.085  0.00  0.00    +0.000 C 
ATOM     18  C25 UNL     1      -0.841  82.795 106.581  0.00  0.00    +0.000 C 
ATOM     19  C26 UNL     1       1.998  81.424 107.016  0.00  0.00    +0.000 C 
ATOM     20  O5  UNL     1      -1.162  80.956 105.050  0.00  0.00    +0.000 OA
ATOM     21  C27 UNL     1       3.920  78.531 103.465  0.00  0.00    +0.000 C 
ENDROOT
BRANCH   1  22
ATOM     22  C7  UNL     1       3.961  75.122 103.807  0.00  0.00    +0.000 C 
ATOM     23  C8  UNL     1       4.573  75.553 105.156  0.00  0.00    +0.000 C 
BRANCH  22  30
ATOM     24  C1  UNL     1       6.631  71.814 100.854  0.00  0.00    +0.000 C 
ATOM     25  C2  UNL     1       6.038  73.176 101.089  0.00  0.00    +0.000 C 
ATOM     26  C3  UNL     1       6.343  74.199 100.270  0.00  0.00    +0.000 C 
ATOM     27  C4  UNL     1       5.758  75.528 100.526  0.00  0.00    +0.000 C 
ATOM     28  O1  UNL     1       5.872  76.456  99.684  0.00  0.00    +0.000 OA
ATOM     29  O2  UNL     1       5.057  75.750 101.712  0.00  0.00    +0.000 OA
ATOM     30  C5  UNL     1       5.089  74.797 102.777  0.00  0.00    +0.000 C 
ATOM     31  C6  UNL     1       5.025  73.363 102.201  0.00  0.00    +0.000 C 
BRANCH  26  32
ATOM     32  O6  UNL     1       7.211  74.005  99.192  0.00  0.00    +0.000 OA
ATOM     33  H38 UNL     1       8.111  74.465  99.145  0.00  0.00    +0.000 HD
ENDBRANCH  26  32
ENDBRANCH  22  30
ENDBRANCH   1  22
BRANCH  18  34
ATOM     34  O4  UNL     1      -0.011  83.916 106.423  0.00  0.00    +0.000 OA
ATOM     35  H31 UNL     1       0.341  83.883 105.495  0.00  0.00    +0.000 HD
ENDBRANCH  18  34
TORSDOF 4
ENDMDL
MODEL 6
REMARK VINA RESULT:      -6.8      5.413      9.515
REMARK  Name = .\Withaferin A.pdb
REMARK  8 active torsions:
REMARK  status: ('A' for Active; 'I' for Inactive)
REMARK    1  A    between atoms: C1_1  and  C2_2
REMARK    2  A    between atoms: C3_3  and  O6_33
REMARK    3  A    between atoms: C5_7  and  C7_9
REMARK    4  A    between atoms: C7_9  and  C8_10
REMARK    5  A    between atoms: C7_9  and  C9_11
REMARK    6  A    between atoms: C13_15  and  C27_32
REMARK    7  A    between atoms: C21_23  and  C26_30
REMARK    8  A    between atoms: C25_28  and  O4_29
REMARK                            x       y       z     vdW  Elec       q    Type
REMARK                         _______ _______ _______ _____ _____    ______ ____
ROOT
ATOM      1  C9  UNL     1       6.652  72.204 103.221  0.00  0.00    +0.000 C 
ATOM      2  C10 UNL     1       7.821  72.582 102.297  0.00  0.00    +0.000 C 
ATOM      3  C11 UNL     1       9.065  72.699 103.167  0.00  0.00    +0.000 C 
ATOM      4  C12 UNL     1       8.643  72.359 104.604  0.00  0.00    +0.000 C 
ATOM      5  C13 UNL     1       7.122  72.636 104.651  0.00  0.00    +0.000 C 
ATOM      6  C14 UNL     1       6.881  74.148 104.898  0.00  0.00    +0.000 C 
ATOM      7  C15 UNL     1       7.551  74.632 106.177  0.00  0.00    +0.000 C 
ATOM      8  C16 UNL     1       9.096  74.494 106.146  0.00  0.00    +0.000 C 
ATOM      9  C17 UNL     1       9.553  73.076 105.665  0.00  0.00    +0.000 C 
ATOM     10  C18 UNL     1       9.948  72.173 106.850  0.00  0.00    +0.000 C 
ATOM     11  C19 UNL     1      11.127  72.763 107.642  0.00  0.00    +0.000 C 
ATOM     12  C20 UNL     1      11.065  74.213 107.945  0.00  0.00    +0.000 C 
ATOM     13  C21 UNL     1       9.792  75.017 107.503  0.00  0.00    +0.000 C 
ATOM     14  C22 UNL     1      10.205  76.476 107.334  0.00  0.00    +0.000 C 
ATOM     15  O3  UNL     1       9.411  77.291 106.884  0.00  0.00    +0.000 OA
ATOM     16  C23 UNL     1      11.583  76.942 107.738  0.00  0.00    +0.000 C 
ATOM     17  C24 UNL     1      11.968  76.326 109.088  0.00  0.00    +0.000 C 
ATOM     18  C25 UNL     1      11.987  74.777 109.054  0.00  0.00    +0.000 C 
ATOM     19  C26 UNL     1       8.827  74.963 108.721  0.00  0.00    +0.000 C 
ATOM     20  O5  UNL     1      11.854  73.717 106.889  0.00  0.00    +0.000 OA
ATOM     21  C27 UNL     1       6.459  71.763 105.750  0.00  0.00    +0.000 C 
ENDROOT
BRANCH   1  22
ATOM     22  C7  UNL     1       5.276  72.751 102.690  0.00  0.00    +0.000 C 
ATOM     23  C8  UNL     1       4.542  71.728 101.798  0.00  0.00    +0.000 C 
BRANCH  22  30
ATOM     24  C1  UNL     1       5.377  75.615  98.380  0.00  0.00    +0.000 C 
ATOM     25  C2  UNL     1       5.037  75.449  99.835  0.00  0.00    +0.000 C 
ATOM     26  C3  UNL     1       4.650  76.511 100.566  0.00  0.00    +0.000 C 
ATOM     27  C4  UNL     1       4.332  76.326 101.994  0.00  0.00    +0.000 C 
ATOM     28  O1  UNL     1       3.795  77.250 102.660  0.00  0.00    +0.000 OA
ATOM     29  O2  UNL     1       4.617  75.105 102.607  0.00  0.00    +0.000 OA
ATOM     30  C5  UNL     1       5.414  74.118 101.949  0.00  0.00    +0.000 C 
ATOM     31  C6  UNL     1       5.046  74.062 100.447  0.00  0.00    +0.000 C 
BRANCH  26  32
ATOM     32  O6  UNL     1       4.559  77.775  99.980  0.00  0.00    +0.000 OA
ATOM     33  H38 UNL     1       4.575  77.898  98.975  0.00  0.00    +0.000 HD
ENDBRANCH  26  32
ENDBRANCH  22  30
ENDBRANCH   1  22
BRANCH  18  34
ATOM     34  O4  UNL     1      11.588  74.258 110.296  0.00  0.00    +0.000 OA
ATOM     35  H31 UNL     1      12.363  73.756 110.659  0.00  0.00    +0.000 HD
ENDBRANCH  18  34
TORSDOF 4
ENDMDL
MODEL 7
REMARK VINA RESULT:      -6.8      6.963     10.149
REMARK  Name = .\Withaferin A.pdb
REMARK  8 active torsions:
REMARK  status: ('A' for Active; 'I' for Inactive)
REMARK    1  A    between atoms: C1_1  and  C2_2
REMARK    2  A    between atoms: C3_3  and  O6_33
REMARK    3  A    between atoms: C5_7  and  C7_9
REMARK    4  A    between atoms: C7_9  and  C8_10
REMARK    5  A    between atoms: C7_9  and  C9_11
REMARK    6  A    between atoms: C13_15  and  C27_32
REMARK    7  A    between atoms: C21_23  and  C26_30
REMARK    8  A    between atoms: C25_28  and  O4_29
REMARK                            x       y       z     vdW  Elec       q    Type
REMARK                         _______ _______ _______ _____ _____    ______ ____
ROOT
ATOM      1  C9  UNL     1       6.310  81.165 105.233  0.00  0.00    +0.000 C 
ATOM      2  C10 UNL     1       5.830  82.537 104.734  0.00  0.00    +0.000 C 
ATOM      3  C11 UNL     1       6.953  83.531 104.999  0.00  0.00    +0.000 C 
ATOM      4  C12 UNL     1       8.113  82.744 105.625  0.00  0.00    +0.000 C 
ATOM      5  C13 UNL     1       7.456  81.491 106.249  0.00  0.00    +0.000 C 
ATOM      6  C14 UNL     1       6.892  81.848 107.649  0.00  0.00    +0.000 C 
ATOM      7  C15 UNL     1       7.968  82.402 108.574  0.00  0.00    +0.000 C 
ATOM      8  C16 UNL     1       8.585  83.730 108.064  0.00  0.00    +0.000 C 
ATOM      9  C17 UNL     1       8.998  83.649 106.556  0.00  0.00    +0.000 C 
ATOM     10  C18 UNL     1      10.512  83.409 106.392  0.00  0.00    +0.000 C 
ATOM     11  C19 UNL     1      11.336  84.553 107.006  0.00  0.00    +0.000 C 
ATOM     12  C20 UNL     1      10.913  85.033 108.343  0.00  0.00    +0.000 C 
ATOM     13  C21 UNL     1       9.716  84.310 109.056  0.00  0.00    +0.000 C 
ATOM     14  C22 UNL     1       9.085  85.307 110.022  0.00  0.00    +0.000 C 
ATOM     15  O3  UNL     1       8.057  85.017 110.619  0.00  0.00    +0.000 OA
ATOM     16  C23 UNL     1       9.723  86.651 110.274  0.00  0.00    +0.000 C 
ATOM     17  C24 UNL     1      11.240  86.488 110.432  0.00  0.00    +0.000 C 
ATOM     18  C25 UNL     1      11.909  85.877 109.176  0.00  0.00    +0.000 C 
ATOM     19  C26 UNL     1      10.367  83.195 109.924  0.00  0.00    +0.000 C 
ATOM     20  O5  UNL     1      10.573  85.734 107.170  0.00  0.00    +0.000 OA
ATOM     21  C27 UNL     1       8.488  80.333 106.325  0.00  0.00    +0.000 C 
ENDROOT
BRANCH   1  22
ATOM     22  C7  UNL     1       5.117  80.260 105.718  0.00  0.00    +0.000 C 
ATOM     23  C8  UNL     1       5.163  78.847 105.099  0.00  0.00    +0.000 C 
BRANCH  22  30
ATOM     24  C1  UNL     1       0.652  80.657 103.130  0.00  0.00    +0.000 C 
ATOM     25  C2  UNL     1       1.437  80.742 104.410  0.00  0.00    +0.000 C 
ATOM     26  C3  UNL     1       0.877  81.270 105.514  0.00  0.00    +0.000 C 
ATOM     27  C4  UNL     1       1.670  81.354 106.755  0.00  0.00    +0.000 C 
ATOM     28  O1  UNL     1       1.127  81.667 107.847  0.00  0.00    +0.000 OA
ATOM     29  O2  UNL     1       3.035  81.065 106.717  0.00  0.00    +0.000 OA
ATOM     30  C5  UNL     1       3.722  80.917 105.472  0.00  0.00    +0.000 C 
ATOM     31  C6  UNL     1       2.830  80.148 104.468  0.00  0.00    +0.000 C 
BRANCH  26  32
ATOM     32  O6  UNL     1      -0.438  81.739 105.483  0.00  0.00    +0.000 OA
ATOM     33  H38 UNL     1      -1.157  81.272 104.944  0.00  0.00    +0.000 HD
ENDBRANCH  26  32
ENDBRANCH  22  30
ENDBRANCH   1  22
BRANCH  18  34
ATOM     34  O4  UNL     1      12.999  85.074 109.547  0.00  0.00    +0.000 OA
ATOM     35  H31 UNL     1      12.832  84.172 109.167  0.00  0.00    +0.000 HD
ENDBRANCH  18  34
TORSDOF 4
ENDMDL
MODEL 8
REMARK VINA RESULT:      -6.3      7.236     12.594
REMARK  Name = .\Withaferin A.pdb
REMARK  8 active torsions:
REMARK  status: ('A' for Active; 'I' for Inactive)
REMARK    1  A    between atoms: C1_1  and  C2_2
REMARK    2  A    between atoms: C3_3  and  O6_33
REMARK    3  A    between atoms: C5_7  and  C7_9
REMARK    4  A    between atoms: C7_9  and  C8_10
REMARK    5  A    between atoms: C7_9  and  C9_11
REMARK    6  A    between atoms: C13_15  and  C27_32
REMARK    7  A    between atoms: C21_23  and  C26_30
REMARK    8  A    between atoms: C25_28  and  O4_29
REMARK                            x       y       z     vdW  Elec       q    Type
REMARK                         _______ _______ _______ _____ _____    ______ ____
ROOT
ATOM      1  C9  UNL     1       8.516  83.702 111.119  0.00  0.00    +0.000 C 
ATOM      2  C10 UNL     1       8.653  85.031 111.879  0.00  0.00    +0.000 C 
ATOM      3  C11 UNL     1       7.390  85.208 112.711  0.00  0.00    +0.000 C 
ATOM      4  C12 UNL     1       6.517  83.968 112.472  0.00  0.00    +0.000 C 
ATOM      5  C13 UNL     1       6.977  83.410 111.104  0.00  0.00    +0.000 C 
ATOM      6  C14 UNL     1       6.261  84.182 109.966  0.00  0.00    +0.000 C 
ATOM      7  C15 UNL     1       4.746  84.105 110.089  0.00  0.00    +0.000 C 
ATOM      8  C16 UNL     1       4.205  84.758 111.387  0.00  0.00    +0.000 C 
ATOM      9  C17 UNL     1       4.989  84.285 112.657  0.00  0.00    +0.000 C 
ATOM     10  C18 UNL     1       4.220  83.192 113.426  0.00  0.00    +0.000 C 
ATOM     11  C19 UNL     1       2.857  83.702 113.923  0.00  0.00    +0.000 C 
ATOM     12  C20 UNL     1       2.048  84.484 112.957  0.00  0.00    +0.000 C 
ATOM     13  C21 UNL     1       2.599  84.677 111.500  0.00  0.00    +0.000 C 
ATOM     14  C22 UNL     1       1.982  85.956 110.941  0.00  0.00    +0.000 C 
ATOM     15  O3  UNL     1       2.343  86.386 109.854  0.00  0.00    +0.000 OA
ATOM     16  C23 UNL     1       0.909  86.694 111.701  0.00  0.00    +0.000 C 
ATOM     17  C24 UNL     1      -0.107  85.697 112.272  0.00  0.00    +0.000 C 
ATOM     18  C25 UNL     1       0.539  84.676 113.242  0.00  0.00    +0.000 C 
ATOM     19  C26 UNL     1       2.008  83.497 110.677  0.00  0.00    +0.000 C 
ATOM     20  O5  UNL     1       2.798  85.116 113.967  0.00  0.00    +0.000 OA
ATOM     21  C27 UNL     1       6.694  81.886 111.032  0.00  0.00    +0.000 C 
ENDROOT
BRANCH   1  22
ATOM     22  C7  UNL     1       9.285  83.722 109.746  0.00  0.00    +0.000 C 
ATOM     23  C8  UNL     1       9.443  85.150 109.183  0.00  0.00    +0.000 C 
BRANCH  22  30
ATOM     24  C1  UNL     1       6.964  82.908 105.193  0.00  0.00    +0.000 C 
ATOM     25  C2  UNL     1       7.897  82.465 106.286  0.00  0.00    +0.000 C 
ATOM     26  C3  UNL     1       8.379  81.208 106.297  0.00  0.00    +0.000 C 
ATOM     27  C4  UNL     1       9.284  80.793 107.386  0.00  0.00    +0.000 C 
ATOM     28  O1  UNL     1       9.896  79.694 107.331  0.00  0.00    +0.000 OA
ATOM     29  O2  UNL     1       9.473  81.638 108.480  0.00  0.00    +0.000 OA
ATOM     30  C5  UNL     1       8.640  82.783 108.678  0.00  0.00    +0.000 C 
ATOM     31  C6  UNL     1       8.359  83.471 107.321  0.00  0.00    +0.000 C 
BRANCH  26  32
ATOM     32  O6  UNL     1       8.020  80.306 105.294  0.00  0.00    +0.000 OA
ATOM     33  H38 UNL     1       8.444  79.389 105.227  0.00  0.00    +0.000 HD
ENDBRANCH  26  32
ENDBRANCH  22  30
ENDBRANCH   1  22
BRANCH  18  34
ATOM     34  O4  UNL     1      -0.113  83.436 113.146  0.00  0.00    +0.000 OA
ATOM     35  H31 UNL     1       0.322  82.941 112.404  0.00  0.00    +0.000 HD
ENDBRANCH  18  34
TORSDOF 4
ENDMDL
MODEL 9
REMARK VINA RESULT:      -6.1      6.059      9.398
REMARK  Name = .\Withaferin A.pdb
REMARK  8 active torsions:
REMARK  status: ('A' for Active; 'I' for Inactive)
REMARK    1  A    between atoms: C1_1  and  C2_2
REMARK    2  A    between atoms: C3_3  and  O6_33
REMARK    3  A    between atoms: C5_7  and  C7_9
REMARK    4  A    between atoms: C7_9  and  C8_10
REMARK    5  A    between atoms: C7_9  and  C9_11
REMARK    6  A    between atoms: C13_15  and  C27_32
REMARK    7  A    between atoms: C21_23  and  C26_30
REMARK    8  A    between atoms: C25_28  and  O4_29
REMARK                            x       y       z     vdW  Elec       q    Type
REMARK                         _______ _______ _______ _____ _____    ______ ____
ROOT
ATOM      1  C9  UNL     1       5.976  74.957 104.783  0.00  0.00    +0.000 C 
ATOM      2  C10 UNL     1       5.217  76.073 105.518  0.00  0.00    +0.000 C 
ATOM      3  C11 UNL     1       5.911  76.285 106.856  0.00  0.00    +0.000 C 
ATOM      4  C12 UNL     1       7.103  75.317 106.904  0.00  0.00    +0.000 C 
ATOM      5  C13 UNL     1       6.741  74.187 105.912  0.00  0.00    +0.000 C 
ATOM      6  C14 UNL     1       5.825  73.154 106.619  0.00  0.00    +0.000 C 
ATOM      7  C15 UNL     1       6.474  72.578 107.870  0.00  0.00    +0.000 C 
ATOM      8  C16 UNL     1       6.754  73.646 108.960  0.00  0.00    +0.000 C 
ATOM      9  C17 UNL     1       7.467  74.911 108.377  0.00  0.00    +0.000 C 
ATOM     10  C18 UNL     1       8.984  74.887 108.654  0.00  0.00    +0.000 C 
ATOM     11  C19 UNL     1       9.284  74.876 110.162  0.00  0.00    +0.000 C 
ATOM     12  C20 UNL     1       8.475  73.953 110.994  0.00  0.00    +0.000 C 
ATOM     13  C21 UNL     1       7.433  73.020 110.282  0.00  0.00    +0.000 C 
ATOM     14  C22 UNL     1       6.349  72.679 111.300  0.00  0.00    +0.000 C 
ATOM     15  O3  UNL     1       5.359  72.050 110.953  0.00  0.00    +0.000 OA
ATOM     16  C23 UNL     1       6.489  73.087 112.746  0.00  0.00    +0.000 C 
ATOM     17  C24 UNL     1       7.920  72.819 113.228  0.00  0.00    +0.000 C 
ATOM     18  C25 UNL     1       8.981  73.600 112.413  0.00  0.00    +0.000 C 
ATOM     19  C26 UNL     1       8.200  71.700 109.983  0.00  0.00    +0.000 C 
ATOM     20  O5  UNL     1       8.184  75.330 110.930  0.00  0.00    +0.000 OA
ATOM     21  C27 UNL     1       8.036  73.527 105.366  0.00  0.00    +0.000 C 
ENDROOT
BRANCH   1  22
ATOM     22  C7  UNL     1       5.038  74.135 103.823  0.00  0.00    +0.000 C 
ATOM     23  C8  UNL     1       5.835  73.256 102.835  0.00  0.00    +0.000 C 
BRANCH  22  30
ATOM     24  C1  UNL     1       0.888  77.222 103.656  0.00  0.00    +0.000 C 
ATOM     25  C2  UNL     1       2.254  76.835 103.161  0.00  0.00    +0.000 C 
ATOM     26  C3  UNL     1       2.761  77.409 102.054  0.00  0.00    +0.000 C 
ATOM     27  C4  UNL     1       4.098  77.006 101.580  0.00  0.00    +0.000 C 
ATOM     28  O1  UNL     1       4.678  77.646 100.664  0.00  0.00    +0.000 OA
ATOM     29  O2  UNL     1       4.731  75.910 102.168  0.00  0.00    +0.000 OA
ATOM     30  C5  UNL     1       4.023  75.037 103.052  0.00  0.00    +0.000 C 
ATOM     31  C6  UNL     1       3.088  75.861 103.968  0.00  0.00    +0.000 C 
BRANCH  26  32
ATOM     32  O6  UNL     1       2.025  78.371 101.358  0.00  0.00    +0.000 OA
ATOM     33  H38 UNL     1       2.473  79.052 100.757  0.00  0.00    +0.000 HD
ENDBRANCH  26  32
ENDBRANCH  22  30
ENDBRANCH   1  22
BRANCH  18  34
ATOM     34  O4  UNL     1      10.164  72.851 112.310  0.00  0.00    +0.000 OA
ATOM     35  H31 UNL     1      10.503  72.978 111.386  0.00  0.00    +0.000 HD
ENDBRANCH  18  34
TORSDOF 4
ENDMDL
