MODEL 1
REMARK VINA RESULT:       1.3      0.000      0.000
REMARK  Name = .\Withaferin A.pdb
REMARK  8 active torsions:
REMARK  status: ('A' for Active; 'I' for Inactive)
REMARK    1  A    between atoms: C1_1  and  C2_2
REMARK    2  A    between atoms: C3_3  and  O6_33
REMARK    3  A    between atoms: C5_7  and  C7_9
REMARK    4  A    between atoms: C7_9  and  C8_10
REMARK    5  A    between atoms: C7_9  and  C9_11
REMARK    6  A    between atoms: C13_15  and  C27_32
REMARK    7  A    between atoms: C21_23  and  C26_30
REMARK    8  A    between atoms: C25_28  and  O4_29
REMARK                            x       y       z     vdW  Elec       q    Type
REMARK                         _______ _______ _______ _____ _____    ______ ____
ROOT
ATOM      1  C9  UNL     1      -0.104  90.282 112.749  0.00  0.00    +0.000 C 
ATOM      2  C10 UNL     1      -0.719  91.690 112.746  0.00  0.00    +0.000 C 
ATOM      3  C11 UNL     1      -1.787  91.714 111.661  0.00  0.00    +0.000 C 
ATOM      4  C12 UNL     1      -1.830  90.310 111.040  0.00  0.00    +0.000 C 
ATOM      5  C13 UNL     1      -0.439  89.700 111.334  0.00  0.00    +0.000 C 
ATOM      6  C14 UNL     1       0.573  90.184 110.264  0.00  0.00    +0.000 C 
ATOM      7  C15 UNL     1       0.123  89.832 108.852  0.00  0.00    +0.000 C 
ATOM      8  C16 UNL     1      -1.210  90.513 108.448  0.00  0.00    +0.000 C 
ATOM      9  C17 UNL     1      -2.314  90.347 109.546  0.00  0.00    +0.000 C 
ATOM     10  C18 UNL     1      -3.306  89.221 109.190  0.00  0.00    +0.000 C 
ATOM     11  C19 UNL     1      -4.044  89.513 107.873  0.00  0.00    +0.000 C 
ATOM     12  C20 UNL     1      -3.220  90.009 106.745  0.00  0.00    +0.000 C 
ATOM     13  C21 UNL     1      -1.669  90.137 106.949  0.00  0.00    +0.000 C 
ATOM     14  C22 UNL     1      -1.164  91.201 105.979  0.00  0.00    +0.000 C 
ATOM     15  O3  UNL     1       0.003  91.566 106.022  0.00  0.00    +0.000 OA
ATOM     16  C23 UNL     1      -2.081  91.802 104.942  0.00  0.00    +0.000 C 
ATOM     17  C24 UNL     1      -2.926  90.700 104.291  0.00  0.00    +0.000 C 
ATOM     18  C25 UNL     1      -3.806  89.939 105.314  0.00  0.00    +0.000 C 
ATOM     19  C26 UNL     1      -1.078  88.780 106.473  0.00  0.00    +0.000 C 
ATOM     20  O5  UNL     1      -3.999  90.885 107.526  0.00  0.00    +0.000 OA
ATOM     21  C27 UNL     1      -0.539  88.151 111.371  0.00  0.00    +0.000 C 
ENDROOT
BRANCH   1  22
ATOM     22  C7  UNL     1       1.399  90.293 113.215  0.00  0.00    +0.000 C 
ATOM     23  C8  UNL     1       2.175  91.508 112.664  0.00  0.00    +0.000 C 
BRANCH  22  30
ATOM     24  C1  UNL     1       2.197  85.214 113.811  0.00  0.00    +0.000 C 
ATOM     25  C2  UNL     1       2.166  86.443 112.945  0.00  0.00    +0.000 C 
ATOM     26  C3  UNL     1       2.664  86.403 111.695  0.00  0.00    +0.000 C 
ATOM     27  C4  UNL     1       2.633  87.624 110.868  0.00  0.00    +0.000 C 
ATOM     28  O1  UNL     1       2.918  87.580 109.642  0.00  0.00    +0.000 OA
ATOM     29  O2  UNL     1       2.268  88.838 111.451  0.00  0.00    +0.000 OA
ATOM     30  C5  UNL     1       2.148  88.967 112.870  0.00  0.00    +0.000 C 
ATOM     31  C6  UNL     1       1.489  87.697 113.459  0.00  0.00    +0.000 C 
BRANCH  26  32
ATOM     32  O6  UNL     1       3.211  85.221 111.190  0.00  0.00    +0.000 OA
ATOM     33  H38 UNL     1       3.772  84.606 111.767  0.00  0.00    +0.000 HD
ENDBRANCH  26  32
ENDBRANCH  22  30
ENDBRANCH   1  22
BRANCH  18  34
ATOM     34  O4  UNL     1      -3.941  88.594 104.934  0.00  0.00    +0.000 OA
ATOM     35  H31 UNL     1      -3.023  88.243 104.793  0.00  0.00    +0.000 HD
ENDBRANCH  18  34
TORSDOF 4
ENDMDL
