MODEL 1
REMARK VINA RESULT:      36.6      0.000      0.000
REMARK  Name = .\Withaferin A.pdb
REMARK  8 active torsions:
REMARK  status: ('A' for Active; 'I' for Inactive)
REMARK    1  A    between atoms: C1_1  and  C2_2
REMARK    2  A    between atoms: C3_3  and  O6_33
REMARK    3  A    between atoms: C5_7  and  C7_9
REMARK    4  A    between atoms: C7_9  and  C8_10
REMARK    5  A    between atoms: C7_9  and  C9_11
REMARK    6  A    between atoms: C13_15  and  C27_32
REMARK    7  A    between atoms: C21_23  and  C26_30
REMARK    8  A    between atoms: C25_28  and  O4_29
REMARK                            x       y       z     vdW  Elec       q    Type
REMARK                         _______ _______ _______ _____ _____    ______ ____
ROOT
ATOM      1  C9  UNL     1     -28.046  51.981   9.347  0.00  0.00    +0.000 C 
ATOM      2  C10 UNL     1     -26.725  51.650   8.636  0.00  0.00    +0.000 C 
ATOM      3  C11 UNL     1     -26.858  52.121   7.194  0.00  0.00    +0.000 C 
ATOM      4  C12 UNL     1     -28.247  52.762   7.056  0.00  0.00    +0.000 C 
ATOM      5  C13 UNL     1     -29.091  52.137   8.191  0.00  0.00    +0.000 C 
ATOM      6  C14 UNL     1     -29.639  50.761   7.728  0.00  0.00    +0.000 C 
ATOM      7  C15 UNL     1     -30.461  50.874   6.452  0.00  0.00    +0.000 C 
ATOM      8  C16 UNL     1     -29.639  51.383   5.239  0.00  0.00    +0.000 C 
ATOM      9  C17 UNL     1     -28.797  52.655   5.588  0.00  0.00    +0.000 C 
ATOM     10  C18 UNL     1     -29.479  53.945   5.089  0.00  0.00    +0.000 C 
ATOM     11  C19 UNL     1     -29.646  53.941   3.561  0.00  0.00    +0.000 C 
ATOM     12  C20 UNL     1     -30.143  52.685   2.949  0.00  0.00    +0.000 C 
ATOM     13  C21 UNL     1     -30.521  51.490   3.893  0.00  0.00    +0.000 C 
ATOM     14  C22 UNL     1     -30.377  50.203   3.086  0.00  0.00    +0.000 C 
ATOM     15  O3  UNL     1     -30.509  49.117   3.634  0.00  0.00    +0.000 OA
ATOM     16  C23 UNL     1     -30.096  50.246   1.604  0.00  0.00    +0.000 C 
ATOM     17  C24 UNL     1     -30.965  51.319   0.938  0.00  0.00    +0.000 C 
ATOM     18  C25 UNL     1     -30.706  52.736   1.508  0.00  0.00    +0.000 C 
ATOM     19  C26 UNL     1     -32.037  51.665   4.193  0.00  0.00    +0.000 C 
ATOM     20  O5  UNL     1     -28.775  53.021   2.929  0.00  0.00    +0.000 OA
ATOM     21  C27 UNL     1     -30.237  53.104   8.593  0.00  0.00    +0.000 C 
ENDROOT
BRANCH   1  22
ATOM     22  C7  UNL     1     -28.364  50.969  10.509  0.00  0.00    +0.000 C 
ATOM     23  C8  UNL     1     -27.409  49.757  10.509  0.00  0.00    +0.000 C 
BRANCH  22  30
ATOM     24  C1  UNL     1     -33.432  51.826   9.904  0.00  0.00    +0.000 C 
ATOM     25  C2  UNL     1     -32.232  50.928   9.788  0.00  0.00    +0.000 C 
ATOM     26  C3  UNL     1     -32.388  49.624   9.491  0.00  0.00    +0.000 C 
ATOM     27  C4  UNL     1     -31.197  48.759   9.393  0.00  0.00    +0.000 C 
ATOM     28  O1  UNL     1     -31.286  47.588   8.941  0.00  0.00    +0.000 OA
ATOM     29  O2  UNL     1     -29.955  49.255   9.793  0.00  0.00    +0.000 OA
ATOM     30  C5  UNL     1     -29.850  50.490  10.505  0.00  0.00    +0.000 C 
ATOM     31  C6  UNL     1     -30.844  51.521   9.919  0.00  0.00    +0.000 C 
BRANCH  26  32
ATOM     32  O6  UNL     1     -33.664  49.095   9.286  0.00  0.00    +0.000 OA
ATOM     33  H38 UNL     1     -34.441  49.677   9.000  0.00  0.00    +0.000 HD
ENDBRANCH  26  32
ENDBRANCH  22  30
ENDBRANCH   1  22
BRANCH  18  34
ATOM     34  O4  UNL     1     -31.891  53.488   1.500  0.00  0.00    +0.000 OA
ATOM     35  H31 UNL     1     -32.267  53.440   2.417  0.00  0.00    +0.000 HD
ENDBRANCH  18  34
TORSDOF 4
ENDMDL
MODEL 2
REMARK VINA RESULT:      38.2      1.958      4.356
REMARK  Name = .\Withaferin A.pdb
REMARK  8 active torsions:
REMARK  status: ('A' for Active; 'I' for Inactive)
REMARK    1  A    between atoms: C1_1  and  C2_2
REMARK    2  A    between atoms: C3_3  and  O6_33
REMARK    3  A    between atoms: C5_7  and  C7_9
REMARK    4  A    between atoms: C7_9  and  C8_10
REMARK    5  A    between atoms: C7_9  and  C9_11
REMARK    6  A    between atoms: C13_15  and  C27_32
REMARK    7  A    between atoms: C21_23  and  C26_30
REMARK    8  A    between atoms: C25_28  and  O4_29
REMARK                            x       y       z     vdW  Elec       q    Type
REMARK                         _______ _______ _______ _____ _____    ______ ____
ROOT
ATOM      1  C9  UNL     1     -32.290  49.526   8.889  0.00  0.00    +0.000 C 
ATOM      2  C10 UNL     1     -33.675  49.832   8.297  0.00  0.00    +0.000 C 
ATOM      3  C11 UNL     1     -33.535  49.796   6.781  0.00  0.00    +0.000 C 
ATOM      4  C12 UNL     1     -32.074  49.436   6.472  0.00  0.00    +0.000 C 
ATOM      5  C13 UNL     1     -31.283  49.852   7.735  0.00  0.00    +0.000 C 
ATOM      6  C14 UNL     1     -30.965  51.368   7.667  0.00  0.00    +0.000 C 
ATOM      7  C15 UNL     1     -30.189  51.733   6.408  0.00  0.00    +0.000 C 
ATOM      8  C16 UNL     1     -30.978  51.453   5.103  0.00  0.00    +0.000 C 
ATOM      9  C17 UNL     1     -31.609  50.020   5.090  0.00  0.00    +0.000 C 
ATOM     10  C18 UNL     1     -30.765  49.035   4.256  0.00  0.00    +0.000 C 
ATOM     11  C19 UNL     1     -30.666  49.478   2.787  0.00  0.00    +0.000 C 
ATOM     12  C20 UNL     1     -30.386  50.914   2.543  0.00  0.00    +0.000 C 
ATOM     13  C21 UNL     1     -30.148  51.851   3.779  0.00  0.00    +0.000 C 
ATOM     14  C22 UNL     1     -30.513  53.271   3.356  0.00  0.00    +0.000 C 
ATOM     15  O3  UNL     1     -30.519  54.174   4.182  0.00  0.00    +0.000 OA
ATOM     16  C23 UNL     1     -30.848  53.589   1.920  0.00  0.00    +0.000 C 
ATOM     17  C24 UNL     1     -29.859  52.883   0.984  0.00  0.00    +0.000 C 
ATOM     18  C25 UNL     1     -29.883  51.342   1.143  0.00  0.00    +0.000 C 
ATOM     19  C26 UNL     1     -28.612  51.836   4.019  0.00  0.00    +0.000 C 
ATOM     20  O5  UNL     1     -31.688  50.391   2.432  0.00  0.00    +0.000 OA
ATOM     21  C27 UNL     1     -29.992  48.998   7.855  0.00  0.00    +0.000 C 
ENDROOT
BRANCH   1  22
ATOM     22  C7  UNL     1     -32.076  50.221  10.285  0.00  0.00    +0.000 C 
ATOM     23  C8  UNL     1     -33.050  51.397  10.510  0.00  0.00    +0.000 C 
BRANCH  22  30
ATOM     24  C1  UNL     1     -26.977  49.740   9.538  0.00  0.00    +0.000 C 
ATOM     25  C2  UNL     1     -28.196  50.595   9.747  0.00  0.00    +0.000 C 
ATOM     26  C3  UNL     1     -28.066  51.914   9.986  0.00  0.00    +0.000 C 
ATOM     27  C4  UNL     1     -29.275  52.731  10.199  0.00  0.00    +0.000 C 
ATOM     28  O1  UNL     1     -29.205  53.987  10.242  0.00  0.00    +0.000 OA
ATOM     29  O2  UNL     1     -30.512  52.101  10.339  0.00  0.00    +0.000 OA
ATOM     30  C5  UNL     1     -30.602  50.684  10.510  0.00  0.00    +0.000 C 
ATOM     31  C6  UNL     1     -29.572  49.978   9.596  0.00  0.00    +0.000 C 
BRANCH  26  32
ATOM     32  O6  UNL     1     -26.799  52.499  10.040  0.00  0.00    +0.000 OA
ATOM     33  H38 UNL     1     -26.670  53.462  10.324  0.00  0.00    +0.000 HD
ENDBRANCH  26  32
ENDBRANCH  22  30
ENDBRANCH   1  22
BRANCH  18  34
ATOM     34  O4  UNL     1     -28.601  50.811   0.928  0.00  0.00    +0.000 OA
ATOM     35  H31 UNL     1     -28.301  50.429   1.794  0.00  0.00    +0.000 HD
ENDBRANCH  18  34
TORSDOF 4
ENDMDL
MODEL 3
REMARK VINA RESULT:      39.2      1.958      4.108
REMARK  Name = .\Withaferin A.pdb
REMARK  8 active torsions:
REMARK  status: ('A' for Active; 'I' for Inactive)
REMARK    1  A    between atoms: C1_1  and  C2_2
REMARK    2  A    between atoms: C3_3  and  O6_33
REMARK    3  A    between atoms: C5_7  and  C7_9
REMARK    4  A    between atoms: C7_9  and  C8_10
REMARK    5  A    between atoms: C7_9  and  C9_11
REMARK    6  A    between atoms: C13_15  and  C27_32
REMARK    7  A    between atoms: C21_23  and  C26_30
REMARK    8  A    between atoms: C25_28  and  O4_29
REMARK                            x       y       z     vdW  Elec       q    Type
REMARK                         _______ _______ _______ _____ _____    ______ ____
ROOT
ATOM      1  C9  UNL     1     -32.979  51.443   8.610  0.00  0.00    +0.000 C 
ATOM      2  C10 UNL     1     -33.667  52.671   7.993  0.00  0.00    +0.000 C 
ATOM      3  C11 UNL     1     -33.330  52.678   6.508  0.00  0.00    +0.000 C 
ATOM      4  C12 UNL     1     -32.468  51.437   6.236  0.00  0.00    +0.000 C 
ATOM      5  C13 UNL     1     -31.837  51.080   7.602  0.00  0.00    +0.000 C 
ATOM      6  C14 UNL     1     -30.576  51.952   7.831  0.00  0.00    +0.000 C 
ATOM      7  C15 UNL     1     -29.555  51.786   6.714  0.00  0.00    +0.000 C 
ATOM      8  C16 UNL     1     -30.086  52.243   5.330  0.00  0.00    +0.000 C 
ATOM      9  C17 UNL     1     -31.502  51.653   5.016  0.00  0.00    +0.000 C 
ATOM     10  C18 UNL     1     -31.414  50.435   4.075  0.00  0.00    +0.000 C 
ATOM     11  C19 UNL     1     -30.791  50.810   2.720  0.00  0.00    +0.000 C 
ATOM     12  C20 UNL     1     -29.581  51.667   2.760  0.00  0.00    +0.000 C 
ATOM     13  C21 UNL     1     -28.993  52.069   4.158  0.00  0.00    +0.000 C 
ATOM     14  C22 UNL     1     -28.227  53.376   3.976  0.00  0.00    +0.000 C 
ATOM     15  O3  UNL     1     -27.766  53.957   4.949  0.00  0.00    +0.000 OA
ATOM     16  C23 UNL     1     -28.006  53.959   2.602  0.00  0.00    +0.000 C 
ATOM     17  C24 UNL     1     -27.609  52.849   1.621  0.00  0.00    +0.000 C 
ATOM     18  C25 UNL     1     -28.690  51.747   1.496  0.00  0.00    +0.000 C 
ATOM     19  C26 UNL     1     -27.939  50.975   4.491  0.00  0.00    +0.000 C 
ATOM     20  O5  UNL     1     -30.851  52.203   2.471  0.00  0.00    +0.000 OA
ATOM     21  C27 UNL     1     -31.503  49.564   7.651  0.00  0.00    +0.000 C 
ENDROOT
BRANCH   1  22
ATOM     22  C7  UNL     1     -32.598  51.673  10.119  0.00  0.00    +0.000 C 
ATOM     23  C8  UNL     1     -32.588  53.169  10.500  0.00  0.00    +0.000 C 
BRANCH  22  30
ATOM     24  C1  UNL     1     -29.454  47.573  10.420  0.00  0.00    +0.000 C 
ATOM     25  C2  UNL     1     -29.668  49.050  10.229  0.00  0.00    +0.000 C 
ATOM     26  C3  UNL     1     -28.617  49.891  10.218  0.00  0.00    +0.000 C 
ATOM     27  C4  UNL     1     -28.852  51.336  10.040  0.00  0.00    +0.000 C 
ATOM     28  O1  UNL     1     -27.892  52.125   9.842  0.00  0.00    +0.000 OA
ATOM     29  O2  UNL     1     -30.158  51.827  10.077  0.00  0.00    +0.000 OA
ATOM     30  C5  UNL     1     -31.243  51.004  10.510  0.00  0.00    +0.000 C 
ATOM     31  C6  UNL     1     -31.066  49.569   9.959  0.00  0.00    +0.000 C 
BRANCH  26  32
ATOM     32  O6  UNL     1     -27.320  49.401  10.381  0.00  0.00    +0.000 OA
ATOM     33  H38 UNL     1     -26.513  49.907  10.038  0.00  0.00    +0.000 HD
ENDBRANCH  26  32
ENDBRANCH  22  30
ENDBRANCH   1  22
BRANCH  18  34
ATOM     34  O4  UNL     1     -28.088  50.498   1.274  0.00  0.00    +0.000 OA
ATOM     35  H31 UNL     1     -28.776  49.921   0.851  0.00  0.00    +0.000 HD
ENDBRANCH  18  34
TORSDOF 4
ENDMDL
