MODEL 1
REMARK VINA RESULT:      -6.6      0.000      0.000
REMARK  Name = .\Withaferin A.pdb
REMARK  8 active torsions:
REMARK  status: ('A' for Active; 'I' for Inactive)
REMARK    1  A    between atoms: C1_1  and  C2_2
REMARK    2  A    between atoms: C3_3  and  O6_33
REMARK    3  A    between atoms: C5_7  and  C7_9
REMARK    4  A    between atoms: C7_9  and  C8_10
REMARK    5  A    between atoms: C7_9  and  C9_11
REMARK    6  A    between atoms: C13_15  and  C27_32
REMARK    7  A    between atoms: C21_23  and  C26_30
REMARK    8  A    between atoms: C25_28  and  O4_29
REMARK                            x       y       z     vdW  Elec       q    Type
REMARK                         _______ _______ _______ _____ _____    ______ ____
ROOT
ATOM      1  C9  UNL     1     -11.021  74.456 -36.215  0.00  0.00    +0.000 C 
ATOM      2  C10 UNL     1     -11.679  74.908 -37.528  0.00  0.00    +0.000 C 
ATOM      3  C11 UNL     1     -13.178  74.992 -37.276  0.00  0.00    +0.000 C 
ATOM      4  C12 UNL     1     -13.408  74.623 -35.803  0.00  0.00    +0.000 C 
ATOM      5  C13 UNL     1     -12.176  73.776 -35.405  0.00  0.00    +0.000 C 
ATOM      6  C14 UNL     1     -12.396  72.307 -35.848  0.00  0.00    +0.000 C 
ATOM      7  C15 UNL     1     -13.665  71.714 -35.252  0.00  0.00    +0.000 C 
ATOM      8  C16 UNL     1     -14.954  72.444 -35.710  0.00  0.00    +0.000 C 
ATOM      9  C17 UNL     1     -14.832  73.999 -35.573  0.00  0.00    +0.000 C 
ATOM     10  C18 UNL     1     -15.534  74.515 -34.301  0.00  0.00    +0.000 C 
ATOM     11  C19 UNL     1     -17.038  74.198 -34.317  0.00  0.00    +0.000 C 
ATOM     12  C20 UNL     1     -17.425  72.832 -34.743  0.00  0.00    +0.000 C 
ATOM     13  C21 UNL     1     -16.290  71.801 -35.077  0.00  0.00    +0.000 C 
ATOM     14  C22 UNL     1     -16.870  70.775 -36.045  0.00  0.00    +0.000 C 
ATOM     15  O3  UNL     1     -16.146  69.925 -36.545  0.00  0.00    +0.000 OA
ATOM     16  C23 UNL     1     -18.341  70.775 -36.384  0.00  0.00    +0.000 C 
ATOM     17  C24 UNL     1     -19.170  70.986 -35.111  0.00  0.00    +0.000 C 
ATOM     18  C25 UNL     1     -18.849  72.327 -34.404  0.00  0.00    +0.000 C 
ATOM     19  C26 UNL     1     -16.009  71.051 -33.744  0.00  0.00    +0.000 C 
ATOM     20  O5  UNL     1     -17.514  73.927 -35.623  0.00  0.00    +0.000 OA
ATOM     21  C27 UNL     1     -11.931  73.884 -33.876  0.00  0.00    +0.000 C 
ENDROOT
BRANCH   1  22
ATOM     22  C7  UNL     1      -9.701  73.635 -36.465  0.00  0.00    +0.000 C 
ATOM     23  C8  UNL     1      -9.311  72.767 -35.250  0.00  0.00    +0.000 C 
BRANCH  22  30
ATOM     24  C1  UNL     1      -6.741  77.849 -35.954  0.00  0.00    +0.000 C 
ATOM     25  C2  UNL     1      -6.901  76.394 -36.298  0.00  0.00    +0.000 C 
ATOM     26  C3  UNL     1      -5.891  75.720 -36.880  0.00  0.00    +0.000 C 
ATOM     27  C4  UNL     1      -6.075  74.296 -37.219  0.00  0.00    +0.000 C 
ATOM     28  O1  UNL     1      -5.101  73.591 -37.591  0.00  0.00    +0.000 OA
ATOM     29  O2  UNL     1      -7.344  73.724 -37.108  0.00  0.00    +0.000 OA
ATOM     30  C5  UNL     1      -8.502  74.535 -36.899  0.00  0.00    +0.000 C 
ATOM     31  C6  UNL     1      -8.174  75.673 -35.903  0.00  0.00    +0.000 C 
BRANCH  26  32
ATOM     32  O6  UNL     1      -4.686  76.364 -37.167  0.00  0.00    +0.000 OA
ATOM     33  H38 UNL     1      -3.892  75.863 -37.547  0.00  0.00    +0.000 HD
ENDBRANCH  26  32
ENDBRANCH  22  30
ENDBRANCH   1  22
BRANCH  18  34
ATOM     34  O4  UNL     1     -18.972  72.185 -33.013  0.00  0.00    +0.000 OA
ATOM     35  H31 UNL     1     -19.940  72.079 -32.821  0.00  0.00    +0.000 HD
ENDBRANCH  18  34
TORSDOF 4
ENDMDL
MODEL 2
REMARK VINA RESULT:      -6.5      2.037      9.239
REMARK  Name = .\Withaferin A.pdb
REMARK  8 active torsions:
REMARK  status: ('A' for Active; 'I' for Inactive)
REMARK    1  A    between atoms: C1_1  and  C2_2
REMARK    2  A    between atoms: C3_3  and  O6_33
REMARK    3  A    between atoms: C5_7  and  C7_9
REMARK    4  A    between atoms: C7_9  and  C8_10
REMARK    5  A    between atoms: C7_9  and  C9_11
REMARK    6  A    between atoms: C13_15  and  C27_32
REMARK    7  A    between atoms: C21_23  and  C26_30
REMARK    8  A    between atoms: C25_28  and  O4_29
REMARK                            x       y       z     vdW  Elec       q    Type
REMARK                         _______ _______ _______ _____ _____    ______ ____
ROOT
ATOM      1  C9  UNL     1     -16.858  74.289 -35.895  0.00  0.00    +0.000 C 
ATOM      2  C10 UNL     1     -16.625  74.044 -34.396  0.00  0.00    +0.000 C 
ATOM      3  C11 UNL     1     -15.229  74.555 -34.067  0.00  0.00    +0.000 C 
ATOM      4  C12 UNL     1     -14.645  75.135 -35.364  0.00  0.00    +0.000 C 
ATOM      5  C13 UNL     1     -15.422  74.433 -36.502  0.00  0.00    +0.000 C 
ATOM      6  C14 UNL     1     -14.781  73.049 -36.786  0.00  0.00    +0.000 C 
ATOM      7  C15 UNL     1     -13.305  73.165 -37.141  0.00  0.00    +0.000 C 
ATOM      8  C16 UNL     1     -12.445  73.752 -35.991  0.00  0.00    +0.000 C 
ATOM      9  C17 UNL     1     -13.076  75.051 -35.386  0.00  0.00    +0.000 C 
ATOM     10  C18 UNL     1     -12.397  76.322 -35.934  0.00  0.00    +0.000 C 
ATOM     11  C19 UNL     1     -10.901  76.361 -35.581  0.00  0.00    +0.000 C 
ATOM     12  C20 UNL     1     -10.139  75.104 -35.775  0.00  0.00    +0.000 C 
ATOM     13  C21 UNL     1     -10.884  73.861 -36.378  0.00  0.00    +0.000 C 
ATOM     14  C22 UNL     1     -10.152  72.610 -35.903  0.00  0.00    +0.000 C 
ATOM     15  O3  UNL     1     -10.607  71.502 -36.149  0.00  0.00    +0.000 OA
ATOM     16  C23 UNL     1      -8.850  72.715 -35.146  0.00  0.00    +0.000 C 
ATOM     17  C24 UNL     1      -7.948  73.768 -35.802  0.00  0.00    +0.000 C 
ATOM     18  C25 UNL     1      -8.594  75.176 -35.826  0.00  0.00    +0.000 C 
ATOM     19  C26 UNL     1     -10.661  73.955 -37.915  0.00  0.00    +0.000 C 
ATOM     20  O5  UNL     1     -10.583  75.504 -34.499  0.00  0.00    +0.000 OA
ATOM     21  C27 UNL     1     -15.432  75.331 -37.768  0.00  0.00    +0.000 C 
ENDROOT
BRANCH   1  22
ATOM     22  C7  UNL     1     -17.832  73.225 -36.525  0.00  0.00    +0.000 C 
ATOM     23  C8  UNL     1     -19.187  73.839 -36.934  0.00  0.00    +0.000 C 
BRANCH  22  30
ATOM     24  C1  UNL     1     -20.734  70.382 -33.319  0.00  0.00    +0.000 C 
ATOM     25  C2  UNL     1     -19.687  70.488 -34.393  0.00  0.00    +0.000 C 
ATOM     26  C3  UNL     1     -18.964  69.407 -34.743  0.00  0.00    +0.000 C 
ATOM     27  C4  UNL     1     -17.935  69.537 -35.791  0.00  0.00    +0.000 C 
ATOM     28  O1  UNL     1     -17.372  68.518 -36.271  0.00  0.00    +0.000 OA
ATOM     29  O2  UNL     1     -17.596  70.804 -36.265  0.00  0.00    +0.000 OA
ATOM     30  C5  UNL     1     -18.052  71.986 -35.602  0.00  0.00    +0.000 C 
ATOM     31  C6  UNL     1     -19.516  71.796 -35.138  0.00  0.00    +0.000 C 
BRANCH  26  32
ATOM     32  O6  UNL     1     -19.182  68.179 -34.114  0.00  0.00    +0.000 OA
ATOM     33  H38 UNL     1     -20.038  67.985 -33.608  0.00  0.00    +0.000 HD
ENDBRANCH  26  32
ENDBRANCH  22  30
ENDBRANCH   1  22
BRANCH  18  34
ATOM     34  O4  UNL     1      -8.201  75.871 -36.981  0.00  0.00    +0.000 OA
ATOM     35  H31 UNL     1      -7.233  76.067 -36.882  0.00  0.00    +0.000 HD
ENDBRANCH  18  34
TORSDOF 4
ENDMDL
MODEL 3
REMARK VINA RESULT:      -6.5      1.739      2.515
REMARK  Name = .\Withaferin A.pdb
REMARK  8 active torsions:
REMARK  status: ('A' for Active; 'I' for Inactive)
REMARK    1  A    between atoms: C1_1  and  C2_2
REMARK    2  A    between atoms: C3_3  and  O6_33
REMARK    3  A    between atoms: C5_7  and  C7_9
REMARK    4  A    between atoms: C7_9  and  C8_10
REMARK    5  A    between atoms: C7_9  and  C9_11
REMARK    6  A    between atoms: C13_15  and  C27_32
REMARK    7  A    between atoms: C21_23  and  C26_30
REMARK    8  A    between atoms: C25_28  and  O4_29
REMARK                            x       y       z     vdW  Elec       q    Type
REMARK                         _______ _______ _______ _____ _____    ______ ____
ROOT
ATOM      1  C9  UNL     1     -12.325  75.970 -37.074  0.00  0.00    +0.000 C 
ATOM      2  C10 UNL     1     -12.047  75.106 -38.314  0.00  0.00    +0.000 C 
ATOM      3  C11 UNL     1     -13.339  74.374 -38.652  0.00  0.00    +0.000 C 
ATOM      4  C12 UNL     1     -14.394  74.829 -37.633  0.00  0.00    +0.000 C 
ATOM      5  C13 UNL     1     -13.584  75.319 -36.409  0.00  0.00    +0.000 C 
ATOM      6  C14 UNL     1     -13.199  74.103 -35.526  0.00  0.00    +0.000 C 
ATOM      7  C15 UNL     1     -14.421  73.314 -35.075  0.00  0.00    +0.000 C 
ATOM      8  C16 UNL     1     -15.213  72.690 -36.254  0.00  0.00    +0.000 C 
ATOM      9  C17 UNL     1     -15.488  73.727 -37.395  0.00  0.00    +0.000 C 
ATOM     10  C18 UNL     1     -16.923  74.287 -37.320  0.00  0.00    +0.000 C 
ATOM     11  C19 UNL     1     -17.973  73.176 -37.481  0.00  0.00    +0.000 C 
ATOM     12  C20 UNL     1     -17.742  71.927 -36.716  0.00  0.00    +0.000 C 
ATOM     13  C21 UNL     1     -16.499  71.852 -35.761  0.00  0.00    +0.000 C 
ATOM     14  C22 UNL     1     -16.122  70.381 -35.611  0.00  0.00    +0.000 C 
ATOM     15  O3  UNL     1     -15.109  70.067 -35.001  0.00  0.00    +0.000 OA
ATOM     16  C23 UNL     1     -16.996  69.295 -36.189  0.00  0.00    +0.000 C 
ATOM     17  C24 UNL     1     -18.471  69.604 -35.903  0.00  0.00    +0.000 C 
ATOM     18  C25 UNL     1     -18.928  70.952 -36.516  0.00  0.00    +0.000 C 
ATOM     19  C26 UNL     1     -17.017  72.326 -34.373  0.00  0.00    +0.000 C 
ATOM     20  O5  UNL     1     -17.436  72.015 -38.088  0.00  0.00    +0.000 OA
ATOM     21  C27 UNL     1     -14.408  76.367 -35.615  0.00  0.00    +0.000 C 
ENDROOT
BRANCH   1  22
ATOM     22  C7  UNL     1     -11.037  76.173 -36.192  0.00  0.00    +0.000 C 
ATOM     23  C8  UNL     1     -10.644  77.660 -36.061  0.00  0.00    +0.000 C 
BRANCH  22  30
ATOM     24  C1  UNL     1      -6.416  75.750 -38.484  0.00  0.00    +0.000 C 
ATOM     25  C2  UNL     1      -7.412  75.302 -37.450  0.00  0.00    +0.000 C 
ATOM     26  C3  UNL     1      -7.201  74.171 -36.751  0.00  0.00    +0.000 C 
ATOM     27  C4  UNL     1      -8.197  73.746 -35.750  0.00  0.00    +0.000 C 
ATOM     28  O1  UNL     1      -7.949  72.803 -34.954  0.00  0.00    +0.000 OA
ATOM     29  O2  UNL     1      -9.422  74.410 -35.678  0.00  0.00    +0.000 OA
ATOM     30  C5  UNL     1      -9.822  75.332 -36.695  0.00  0.00    +0.000 C 
ATOM     31  C6  UNL     1      -8.607  76.181 -37.141  0.00  0.00    +0.000 C 
BRANCH  26  32
ATOM     32  O6  UNL     1      -6.054  73.406 -36.977  0.00  0.00    +0.000 OA
ATOM     33  H38 UNL     1      -6.108  72.416 -37.182  0.00  0.00    +0.000 HD
ENDBRANCH  26  32
ENDBRANCH  22  30
ENDBRANCH   1  22
BRANCH  18  34
ATOM     34  O4  UNL     1     -19.892  71.557 -35.694  0.00  0.00    +0.000 OA
ATOM     35  H31 UNL     1     -20.053  72.465 -36.063  0.00  0.00    +0.000 HD
ENDBRANCH  18  34
TORSDOF 4
ENDMDL
MODEL 4
REMARK VINA RESULT:      -6.2      1.886      2.687
REMARK  Name = .\Withaferin A.pdb
REMARK  8 active torsions:
REMARK  status: ('A' for Active; 'I' for Inactive)
REMARK    1  A    between atoms: C1_1  and  C2_2
REMARK    2  A    between atoms: C3_3  and  O6_33
REMARK    3  A    between atoms: C5_7  and  C7_9
REMARK    4  A    between atoms: C7_9  and  C8_10
REMARK    5  A    between atoms: C7_9  and  C9_11
REMARK    6  A    between atoms: C13_15  and  C27_32
REMARK    7  A    between atoms: C21_23  and  C26_30
REMARK    8  A    between atoms: C25_28  and  O4_29
REMARK                            x       y       z     vdW  Elec       q    Type
REMARK                         _______ _______ _______ _____ _____    ______ ____
ROOT
ATOM      1  C9  UNL     1     -13.040  73.737 -36.257  0.00  0.00    +0.000 C 
ATOM      2  C10 UNL     1     -13.180  73.751 -37.788  0.00  0.00    +0.000 C 
ATOM      3  C11 UNL     1     -14.642  73.471 -38.110  0.00  0.00    +0.000 C 
ATOM      4  C12 UNL     1     -15.378  73.323 -36.770  0.00  0.00    +0.000 C 
ATOM      5  C13 UNL     1     -14.282  72.927 -35.753  0.00  0.00    +0.000 C 
ATOM      6  C14 UNL     1     -14.035  71.398 -35.830  0.00  0.00    +0.000 C 
ATOM      7  C15 UNL     1     -15.308  70.601 -35.580  0.00  0.00    +0.000 C 
ATOM      8  C16 UNL     1     -16.410  70.861 -36.640  0.00  0.00    +0.000 C 
ATOM      9  C17 UNL     1     -16.635  72.389 -36.895  0.00  0.00    +0.000 C 
ATOM     10  C18 UNL     1     -17.872  72.916 -36.140  0.00  0.00    +0.000 C 
ATOM     11  C19 UNL     1     -19.158  72.206 -36.596  0.00  0.00    +0.000 C 
ATOM     12  C20 UNL     1     -19.087  70.732 -36.744  0.00  0.00    +0.000 C 
ATOM     13  C21 UNL     1     -17.748  70.004 -36.367  0.00  0.00    +0.000 C 
ATOM     14  C22 UNL     1     -17.692  68.703 -37.162  0.00  0.00    +0.000 C 
ATOM     15  O3  UNL     1     -16.688  68.006 -37.127  0.00  0.00    +0.000 OA
ATOM     16  C23 UNL     1     -18.874  68.245 -37.981  0.00  0.00    +0.000 C 
ATOM     17  C24 UNL     1     -20.170  68.449 -37.187  0.00  0.00    +0.000 C 
ATOM     18  C25 UNL     1     -20.410  69.930 -36.803  0.00  0.00    +0.000 C 
ATOM     19  C26 UNL     1     -17.901  69.610 -34.871  0.00  0.00    +0.000 C 
ATOM     20  O5  UNL     1     -19.007  71.587 -37.860  0.00  0.00    +0.000 OA
ATOM     21  C27 UNL     1     -14.701  73.369 -34.325  0.00  0.00    +0.000 C 
ENDROOT
BRANCH   1  22
ATOM     22  C7  UNL     1     -11.609  73.272 -35.798  0.00  0.00    +0.000 C 
ATOM     23  C8  UNL     1     -11.574  72.864 -34.310  0.00  0.00    +0.000 C 
BRANCH  22  30
ATOM     24  C1  UNL     1      -9.232  77.774 -34.861  0.00  0.00    +0.000 C 
ATOM     25  C2  UNL     1      -9.189  76.333 -35.288  0.00  0.00    +0.000 C 
ATOM     26  C3  UNL     1      -8.067  75.820 -35.827  0.00  0.00    +0.000 C 
ATOM     27  C4  UNL     1      -8.050  74.406 -36.249  0.00  0.00    +0.000 C 
ATOM     28  O1  UNL     1      -6.974  73.846 -36.583  0.00  0.00    +0.000 OA
ATOM     29  O2  UNL     1      -9.242  73.681 -36.260  0.00  0.00    +0.000 OA
ATOM     30  C5  UNL     1     -10.504  74.334 -36.096  0.00  0.00    +0.000 C 
ATOM     31  C6  UNL     1     -10.386  75.442 -35.024  0.00  0.00    +0.000 C 
BRANCH  26  32
ATOM     32  O6  UNL     1      -6.934  76.620 -35.992  0.00  0.00    +0.000 OA
ATOM     33  H38 UNL     1      -6.990  77.545 -36.398  0.00  0.00    +0.000 HD
ENDBRANCH  26  32
ENDBRANCH  22  30
ENDBRANCH   1  22
BRANCH  18  34
ATOM     34  O4  UNL     1     -21.057  70.012 -35.561  0.00  0.00    +0.000 OA
ATOM     35  H31 UNL     1     -21.512  69.142 -35.417  0.00  0.00    +0.000 HD
ENDBRANCH  18  34
TORSDOF 4
ENDMDL
MODEL 5
REMARK VINA RESULT:      -6.2      1.751      2.056
REMARK  Name = .\Withaferin A.pdb
REMARK  8 active torsions:
REMARK  status: ('A' for Active; 'I' for Inactive)
REMARK    1  A    between atoms: C1_1  and  C2_2
REMARK    2  A    between atoms: C3_3  and  O6_33
REMARK    3  A    between atoms: C5_7  and  C7_9
REMARK    4  A    between atoms: C7_9  and  C8_10
REMARK    5  A    between atoms: C7_9  and  C9_11
REMARK    6  A    between atoms: C13_15  and  C27_32
REMARK    7  A    between atoms: C21_23  and  C26_30
REMARK    8  A    between atoms: C25_28  and  O4_29
REMARK                            x       y       z     vdW  Elec       q    Type
REMARK                         _______ _______ _______ _____ _____    ______ ____
ROOT
ATOM      1  C9  UNL     1     -10.407  74.432 -35.433  0.00  0.00    +0.000 C 
ATOM      2  C10 UNL     1     -10.812  75.744 -36.123  0.00  0.00    +0.000 C 
ATOM      3  C11 UNL     1     -12.313  75.911 -35.928  0.00  0.00    +0.000 C 
ATOM      4  C12 UNL     1     -12.794  74.715 -35.094  0.00  0.00    +0.000 C 
ATOM      5  C13 UNL     1     -11.736  73.611 -35.326  0.00  0.00    +0.000 C 
ATOM      6  C14 UNL     1     -12.053  72.865 -36.648  0.00  0.00    +0.000 C 
ATOM      7  C15 UNL     1     -13.454  72.268 -36.646  0.00  0.00    +0.000 C 
ATOM      8  C16 UNL     1     -14.572  73.337 -36.537  0.00  0.00    +0.000 C 
ATOM      9  C17 UNL     1     -14.297  74.364 -35.388  0.00  0.00    +0.000 C 
ATOM     10  C18 UNL     1     -15.114  74.035 -34.123  0.00  0.00    +0.000 C 
ATOM     11  C19 UNL     1     -16.627  74.085 -34.397  0.00  0.00    +0.000 C 
ATOM     12  C20 UNL     1     -17.098  73.432 -35.642  0.00  0.00    +0.000 C 
ATOM     13  C21 UNL     1     -16.050  72.691 -36.544  0.00  0.00    +0.000 C 
ATOM     14  C22 UNL     1     -16.595  72.680 -37.969  0.00  0.00    +0.000 C 
ATOM     15  O3  UNL     1     -15.905  72.254 -38.886  0.00  0.00    +0.000 OA
ATOM     16  C23 UNL     1     -17.991  73.167 -38.267  0.00  0.00    +0.000 C 
ATOM     17  C24 UNL     1     -18.967  72.636 -37.210  0.00  0.00    +0.000 C 
ATOM     18  C25 UNL     1     -18.604  73.097 -35.777  0.00  0.00    +0.000 C 
ATOM     19  C26 UNL     1     -16.052  71.216 -36.051  0.00  0.00    +0.000 C 
ATOM     20  O5  UNL     1     -16.936  74.829 -35.561  0.00  0.00    +0.000 OA
ATOM     21  C27 UNL     1     -11.705  72.643 -34.114  0.00  0.00    +0.000 C 
ENDROOT
BRANCH   1  22
ATOM     22  C7  UNL     1      -9.166  73.756 -36.126  0.00  0.00    +0.000 C 
ATOM     23  C8  UNL     1      -8.345  72.891 -35.146  0.00  0.00    +0.000 C 
BRANCH  22  30
ATOM     24  C1  UNL     1      -4.495  75.589 -37.396  0.00  0.00    +0.000 C 
ATOM     25  C2  UNL     1      -5.940  75.339 -37.730  0.00  0.00    +0.000 C 
ATOM     26  C3  UNL     1      -6.488  75.893 -38.827  0.00  0.00    +0.000 C 
ATOM     27  C4  UNL     1      -7.909  75.643 -39.128  0.00  0.00    +0.000 C 
ATOM     28  O1  UNL     1      -8.405  75.989 -40.232  0.00  0.00    +0.000 OA
ATOM     29  O2  UNL     1      -8.708  75.000 -38.181  0.00  0.00    +0.000 OA
ATOM     30  C5  UNL     1      -8.241  74.787 -36.847  0.00  0.00    +0.000 C 
ATOM     31  C6  UNL     1      -6.747  74.386 -36.871  0.00  0.00    +0.000 C 
BRANCH  26  32
ATOM     32  O6  UNL     1      -5.719  76.703 -39.667  0.00  0.00    +0.000 OA
ATOM     33  H38 UNL     1      -6.120  77.163 -40.475  0.00  0.00    +0.000 HD
ENDBRANCH  26  32
ENDBRANCH  22  30
ENDBRANCH   1  22
BRANCH  18  34
ATOM     34  O4  UNL     1     -18.943  72.103 -34.845  0.00  0.00    +0.000 OA
ATOM     35  H31 UNL     1     -19.441  72.553 -34.115  0.00  0.00    +0.000 HD
ENDBRANCH  18  34
TORSDOF 4
ENDMDL
MODEL 6
REMARK VINA RESULT:      -6.0      1.846      9.525
REMARK  Name = .\Withaferin A.pdb
REMARK  8 active torsions:
REMARK  status: ('A' for Active; 'I' for Inactive)
REMARK    1  A    between atoms: C1_1  and  C2_2
REMARK    2  A    between atoms: C3_3  and  O6_33
REMARK    3  A    between atoms: C5_7  and  C7_9
REMARK    4  A    between atoms: C7_9  and  C8_10
REMARK    5  A    between atoms: C7_9  and  C9_11
REMARK    6  A    between atoms: C13_15  and  C27_32
REMARK    7  A    between atoms: C21_23  and  C26_30
REMARK    8  A    between atoms: C25_28  and  O4_29
REMARK                            x       y       z     vdW  Elec       q    Type
REMARK                         _______ _______ _______ _____ _____    ______ ____
ROOT
ATOM      1  C9  UNL     1     -14.367  72.870 -35.386  0.00  0.00    +0.000 C 
ATOM      2  C10 UNL     1     -14.204  72.347 -36.822  0.00  0.00    +0.000 C 
ATOM      3  C11 UNL     1     -12.729  72.462 -37.179  0.00  0.00    +0.000 C 
ATOM      4  C12 UNL     1     -12.009  73.023 -35.944  0.00  0.00    +0.000 C 
ATOM      5  C13 UNL     1     -13.105  73.764 -35.143  0.00  0.00    +0.000 C 
ATOM      6  C14 UNL     1     -13.294  75.188 -35.727  0.00  0.00    +0.000 C 
ATOM      7  C15 UNL     1     -11.997  75.986 -35.719  0.00  0.00    +0.000 C 
ATOM      8  C16 UNL     1     -10.889  75.358 -36.605  0.00  0.00    +0.000 C 
ATOM      9  C17 UNL     1     -10.716  73.825 -36.335  0.00  0.00    +0.000 C 
ATOM     10  C18 UNL     1      -9.511  73.542 -35.416  0.00  0.00    +0.000 C 
ATOM     11  C19 UNL     1      -8.193  74.023 -36.047  0.00  0.00    +0.000 C 
ATOM     12  C20 UNL     1      -8.209  75.367 -36.673  0.00  0.00    +0.000 C 
ATOM     13  C21 UNL     1      -9.525  76.217 -36.593  0.00  0.00    +0.000 C 
ATOM     14  C22 UNL     1      -9.521  77.184 -37.774  0.00  0.00    +0.000 C 
ATOM     15  O3  UNL     1     -10.500  77.883 -37.997  0.00  0.00    +0.000 OA
ATOM     16  C23 UNL     1      -8.311  77.311 -38.666  0.00  0.00    +0.000 C 
ATOM     17  C24 UNL     1      -7.036  77.343 -37.815  0.00  0.00    +0.000 C 
ATOM     18  C25 UNL     1      -6.856  76.065 -36.959  0.00  0.00    +0.000 C 
ATOM     19  C26 UNL     1      -9.381  77.079 -35.307  0.00  0.00    +0.000 C 
ATOM     20  O5  UNL     1      -8.301  74.194 -37.448  0.00  0.00    +0.000 OA
ATOM     21  C27 UNL     1     -12.725  73.806 -33.639  0.00  0.00    +0.000 C 
ENDROOT
BRANCH   1  22
ATOM     22  C7  UNL     1     -15.788  73.502 -35.143  0.00  0.00    +0.000 C 
ATOM     23  C8  UNL     1     -15.766  74.593 -34.052  0.00  0.00    +0.000 C 
BRANCH  22  30
ATOM     24  C1  UNL     1     -18.948  69.645 -36.531  0.00  0.00    +0.000 C 
ATOM     25  C2  UNL     1     -18.061  70.312 -35.516  0.00  0.00    +0.000 C 
ATOM     26  C3  UNL     1     -18.044  69.878 -34.242  0.00  0.00    +0.000 C 
ATOM     27  C4  UNL     1     -17.174  70.554 -33.261  0.00  0.00    +0.000 C 
ATOM     28  O1  UNL     1     -16.994  70.066 -32.115  0.00  0.00    +0.000 OA
ATOM     29  O2  UNL     1     -16.533  71.741 -33.618  0.00  0.00    +0.000 OA
ATOM     30  C5  UNL     1     -16.878  72.432 -34.821  0.00  0.00    +0.000 C 
ATOM     31  C6  UNL     1     -17.121  71.415 -35.961  0.00  0.00    +0.000 C 
BRANCH  26  32
ATOM     32  O6  UNL     1     -18.847  68.804 -33.852  0.00  0.00    +0.000 OA
ATOM     33  H38 UNL     1     -18.448  67.928 -33.536  0.00  0.00    +0.000 HD
ENDBRANCH  26  32
ENDBRANCH  22  30
ENDBRANCH   1  22
BRANCH  18  34
ATOM     34  O4  UNL     1      -6.231  76.379 -35.741  0.00  0.00    +0.000 OA
ATOM     35  H31 UNL     1      -6.858  76.964 -35.241  0.00  0.00    +0.000 HD
ENDBRANCH  18  34
TORSDOF 4
ENDMDL
MODEL 7
REMARK VINA RESULT:      -5.9      2.323      9.288
REMARK  Name = .\Withaferin A.pdb
REMARK  8 active torsions:
REMARK  status: ('A' for Active; 'I' for Inactive)
REMARK    1  A    between atoms: C1_1  and  C2_2
REMARK    2  A    between atoms: C3_3  and  O6_33
REMARK    3  A    between atoms: C5_7  and  C7_9
REMARK    4  A    between atoms: C7_9  and  C8_10
REMARK    5  A    between atoms: C7_9  and  C9_11
REMARK    6  A    between atoms: C13_15  and  C27_32
REMARK    7  A    between atoms: C21_23  and  C26_30
REMARK    8  A    between atoms: C25_28  and  O4_29
REMARK                            x       y       z     vdW  Elec       q    Type
REMARK                         _______ _______ _______ _____ _____    ______ ____
ROOT
ATOM      1  C9  UNL     1     -15.445  72.977 -35.739  0.00  0.00    +0.000 C 
ATOM      2  C10 UNL     1     -15.267  73.728 -34.411  0.00  0.00    +0.000 C 
ATOM      3  C11 UNL     1     -14.365  74.923 -34.686  0.00  0.00    +0.000 C 
ATOM      4  C12 UNL     1     -14.034  74.902 -36.185  0.00  0.00    +0.000 C 
ATOM      5  C13 UNL     1     -14.231  73.430 -36.618  0.00  0.00    +0.000 C 
ATOM      6  C14 UNL     1     -12.951  72.619 -36.284  0.00  0.00    +0.000 C 
ATOM      7  C15 UNL     1     -11.713  73.208 -36.946  0.00  0.00    +0.000 C 
ATOM      8  C16 UNL     1     -11.388  74.646 -36.463  0.00  0.00    +0.000 C 
ATOM      9  C17 UNL     1     -12.647  75.576 -36.487  0.00  0.00    +0.000 C 
ATOM     10  C18 UNL     1     -12.660  76.484 -37.732  0.00  0.00    +0.000 C 
ATOM     11  C19 UNL     1     -11.434  77.412 -37.768  0.00  0.00    +0.000 C 
ATOM     12  C20 UNL     1     -10.124  76.796 -37.448  0.00  0.00    +0.000 C 
ATOM     13  C21 UNL     1     -10.070  75.253 -37.166  0.00  0.00    +0.000 C 
ATOM     14  C22 UNL     1      -8.854  74.989 -36.284  0.00  0.00    +0.000 C 
ATOM     15  O3  UNL     1      -8.656  73.870 -35.831  0.00  0.00    +0.000 OA
ATOM     16  C23 UNL     1      -7.868  76.089 -35.975  0.00  0.00    +0.000 C 
ATOM     17  C24 UNL     1      -7.568  76.893 -37.246  0.00  0.00    +0.000 C 
ATOM     18  C25 UNL     1      -8.834  77.551 -37.849  0.00  0.00    +0.000 C 
ATOM     19  C26 UNL     1      -9.778  74.592 -38.543  0.00  0.00    +0.000 C 
ATOM     20  O5  UNL     1     -10.831  77.553 -36.494  0.00  0.00    +0.000 OA
ATOM     21  C27 UNL     1     -14.574  73.364 -38.130  0.00  0.00    +0.000 C 
ENDROOT
BRANCH   1  22
ATOM     22  C7  UNL     1     -15.675  71.435 -35.522  0.00  0.00    +0.000 C 
ATOM     23  C8  UNL     1     -16.301  70.755 -36.758  0.00  0.00    +0.000 C 
BRANCH  22  30
ATOM     24  C1  UNL     1     -19.665  69.169 -33.128  0.00  0.00    +0.000 C 
ATOM     25  C2  UNL     1     -18.241  69.652 -33.131  0.00  0.00    +0.000 C 
ATOM     26  C3  UNL     1     -17.533  69.679 -31.986  0.00  0.00    +0.000 C 
ATOM     27  C4  UNL     1     -16.141  70.166 -32.011  0.00  0.00    +0.000 C 
ATOM     28  O1  UNL     1     -15.394  70.035 -31.007  0.00  0.00    +0.000 OA
ATOM     29  O2  UNL     1     -15.646  70.766 -33.170  0.00  0.00    +0.000 OA
ATOM     30  C5  UNL     1     -16.518  71.123 -34.245  0.00  0.00    +0.000 C 
ATOM     31  C6  UNL     1     -17.584  70.021 -34.446  0.00  0.00    +0.000 C 
BRANCH  26  32
ATOM     32  O6  UNL     1     -18.113  69.257 -30.788  0.00  0.00    +0.000 OA
ATOM     33  H38 UNL     1     -19.001  68.771 -30.769  0.00  0.00    +0.000 HD
ENDBRANCH  26  32
ENDBRANCH  22  30
ENDBRANCH   1  22
BRANCH  18  34
ATOM     34  O4  UNL     1      -8.739  77.596 -39.249  0.00  0.00    +0.000 OA
ATOM     35  H31 UNL     1      -9.213  76.795 -39.593  0.00  0.00    +0.000 HD
ENDBRANCH  18  34
TORSDOF 4
ENDMDL
MODEL 8
REMARK VINA RESULT:      -5.9      1.750      2.588
REMARK  Name = .\Withaferin A.pdb
REMARK  8 active torsions:
REMARK  status: ('A' for Active; 'I' for Inactive)
REMARK    1  A    between atoms: C1_1  and  C2_2
REMARK    2  A    between atoms: C3_3  and  O6_33
REMARK    3  A    between atoms: C5_7  and  C7_9
REMARK    4  A    between atoms: C7_9  and  C8_10
REMARK    5  A    between atoms: C7_9  and  C9_11
REMARK    6  A    between atoms: C13_15  and  C27_32
REMARK    7  A    between atoms: C21_23  and  C26_30
REMARK    8  A    between atoms: C25_28  and  O4_29
REMARK                            x       y       z     vdW  Elec       q    Type
REMARK                         _______ _______ _______ _____ _____    ______ ____
ROOT
ATOM      1  C9  UNL     1     -12.099  74.841 -36.112  0.00  0.00    +0.000 C 
ATOM      2  C10 UNL     1     -12.999  75.937 -35.521  0.00  0.00    +0.000 C 
ATOM      3  C11 UNL     1     -14.142  75.241 -34.795  0.00  0.00    +0.000 C 
ATOM      4  C12 UNL     1     -13.904  73.729 -34.927  0.00  0.00    +0.000 C 
ATOM      5  C13 UNL     1     -13.014  73.571 -36.182  0.00  0.00    +0.000 C 
ATOM      6  C14 UNL     1     -13.906  73.580 -37.450  0.00  0.00    +0.000 C 
ATOM      7  C15 UNL     1     -14.967  72.489 -37.410  0.00  0.00    +0.000 C 
ATOM      8  C16 UNL     1     -15.972  72.658 -36.240  0.00  0.00    +0.000 C 
ATOM      9  C17 UNL     1     -15.249  72.919 -34.875  0.00  0.00    +0.000 C 
ATOM     10  C18 UNL     1     -15.167  71.638 -34.021  0.00  0.00    +0.000 C 
ATOM     11  C19 UNL     1     -16.564  71.097 -33.676  0.00  0.00    +0.000 C 
ATOM     12  C20 UNL     1     -17.553  71.058 -34.780  0.00  0.00    +0.000 C 
ATOM     13  C21 UNL     1     -17.094  71.501 -36.214  0.00  0.00    +0.000 C 
ATOM     14  C22 UNL     1     -18.333  71.976 -36.967  0.00  0.00    +0.000 C 
ATOM     15  O3  UNL     1     -18.221  72.480 -38.077  0.00  0.00    +0.000 OA
ATOM     16  C23 UNL     1     -19.710  71.813 -36.373  0.00  0.00    +0.000 C 
ATOM     17  C24 UNL     1     -19.846  70.422 -35.742  0.00  0.00    +0.000 C 
ATOM     18  C25 UNL     1     -18.814  70.175 -34.613  0.00  0.00    +0.000 C 
ATOM     19  C26 UNL     1     -16.615  70.198 -36.914  0.00  0.00    +0.000 C 
ATOM     20  O5  UNL     1     -17.570  72.084 -33.815  0.00  0.00    +0.000 OA
ATOM     21  C27 UNL     1     -12.177  72.268 -36.077  0.00  0.00    +0.000 C 
ENDROOT
BRANCH   1  22
ATOM     22  C7  UNL     1     -11.376  75.313 -37.427  0.00  0.00    +0.000 C 
ATOM     23  C8  UNL     1     -12.211  75.024 -38.692  0.00  0.00    +0.000 C 
BRANCH  22  30
ATOM     24  C1  UNL     1      -6.427  75.644 -38.906  0.00  0.00    +0.000 C 
ATOM     25  C2  UNL     1      -7.481  75.142 -37.958  0.00  0.00    +0.000 C 
ATOM     26  C3  UNL     1      -7.171  74.221 -37.027  0.00  0.00    +0.000 C 
ATOM     27  C4  UNL     1      -8.223  73.735 -36.114  0.00  0.00    +0.000 C 
ATOM     28  O1  UNL     1      -7.934  73.018 -35.121  0.00  0.00    +0.000 OA
ATOM     29  O2  UNL     1      -9.552  74.090 -36.351  0.00  0.00    +0.000 OA
ATOM     30  C5  UNL     1      -9.941  74.717 -37.575  0.00  0.00    +0.000 C 
ATOM     31  C6  UNL     1      -8.869  75.748 -38.001  0.00  0.00    +0.000 C 
BRANCH  26  32
ATOM     32  O6  UNL     1      -5.868  73.725 -36.931  0.00  0.00    +0.000 OA
ATOM     33  H38 UNL     1      -5.236  74.029 -36.200  0.00  0.00    +0.000 HD
ENDBRANCH  26  32
ENDBRANCH  22  30
ENDBRANCH   1  22
BRANCH  18  34
ATOM     34  O4  UNL     1     -18.433  68.824 -34.589  0.00  0.00    +0.000 OA
ATOM     35  H31 UNL     1     -17.706  68.720 -35.256  0.00  0.00    +0.000 HD
ENDBRANCH  18  34
TORSDOF 4
ENDMDL
MODEL 9
REMARK VINA RESULT:      -5.8      1.517      2.055
REMARK  Name = .\Withaferin A.pdb
REMARK  8 active torsions:
REMARK  status: ('A' for Active; 'I' for Inactive)
REMARK    1  A    between atoms: C1_1  and  C2_2
REMARK    2  A    between atoms: C3_3  and  O6_33
REMARK    3  A    between atoms: C5_7  and  C7_9
REMARK    4  A    between atoms: C7_9  and  C8_10
REMARK    5  A    between atoms: C7_9  and  C9_11
REMARK    6  A    between atoms: C13_15  and  C27_32
REMARK    7  A    between atoms: C21_23  and  C26_30
REMARK    8  A    between atoms: C25_28  and  O4_29
REMARK                            x       y       z     vdW  Elec       q    Type
REMARK                         _______ _______ _______ _____ _____    ______ ____
ROOT
ATOM      1  C9  UNL     1     -10.723  75.548 -37.020  0.00  0.00    +0.000 C 
ATOM      2  C10 UNL     1     -10.572  74.643 -38.252  0.00  0.00    +0.000 C 
ATOM      3  C11 UNL     1     -11.972  74.221 -38.677  0.00  0.00    +0.000 C 
ATOM      4  C12 UNL     1     -12.958  74.903 -37.717  0.00  0.00    +0.000 C 
ATOM      5  C13 UNL     1     -12.136  75.198 -36.441  0.00  0.00    +0.000 C 
ATOM      6  C14 UNL     1     -12.089  73.928 -35.553  0.00  0.00    +0.000 C 
ATOM      7  C15 UNL     1     -13.482  73.435 -35.186  0.00  0.00    +0.000 C 
ATOM      8  C16 UNL     1     -14.321  73.005 -36.418  0.00  0.00    +0.000 C 
ATOM      9  C17 UNL     1     -14.285  74.076 -37.559  0.00  0.00    +0.000 C 
ATOM     10  C18 UNL     1     -15.559  74.946 -37.563  0.00  0.00    +0.000 C 
ATOM     11  C19 UNL     1     -16.821  74.100 -37.801  0.00  0.00    +0.000 C 
ATOM     12  C20 UNL     1     -16.924  72.832 -37.040  0.00  0.00    +0.000 C 
ATOM     13  C21 UNL     1     -15.790  72.479 -36.014  0.00  0.00    +0.000 C 
ATOM     14  C22 UNL     1     -15.764  70.961 -35.861  0.00  0.00    +0.000 C 
ATOM     15  O3  UNL     1     -14.888  70.427 -35.196  0.00  0.00    +0.000 OA
ATOM     16  C23 UNL     1     -16.823  70.100 -36.504  0.00  0.00    +0.000 C 
ATOM     17  C24 UNL     1     -18.205  70.734 -36.303  0.00  0.00    +0.000 C 
ATOM     18  C25 UNL     1     -18.309  72.150 -36.924  0.00  0.00    +0.000 C 
ATOM     19  C26 UNL     1     -16.272  73.058 -34.653  0.00  0.00    +0.000 C 
ATOM     20  O5  UNL     1     -16.522  72.848 -38.390  0.00  0.00    +0.000 OA
ATOM     21  C27 UNL     1     -12.749  76.406 -35.683  0.00  0.00    +0.000 C 
ENDROOT
BRANCH   1  22
ATOM     22  C7  UNL     1      -9.479  75.456 -36.061  0.00  0.00    +0.000 C 
ATOM     23  C8  UNL     1      -9.534  76.501 -34.926  0.00  0.00    +0.000 C 
BRANCH  22  30
ATOM     24  C1  UNL     1      -5.052  77.878 -37.208  0.00  0.00    +0.000 C 
ATOM     25  C2  UNL     1      -5.834  76.613 -36.987  0.00  0.00    +0.000 C 
ATOM     26  C3  UNL     1      -5.296  75.420 -37.301  0.00  0.00    +0.000 C 
ATOM     27  C4  UNL     1      -6.087  74.193 -37.085  0.00  0.00    +0.000 C 
ATOM     28  O1  UNL     1      -5.556  73.057 -37.192  0.00  0.00    +0.000 OA
ATOM     29  O2  UNL     1      -7.436  74.299 -36.743  0.00  0.00    +0.000 OA
ATOM     30  C5  UNL     1      -8.120  75.551 -36.823  0.00  0.00    +0.000 C 
ATOM     31  C6  UNL     1      -7.195  76.688 -36.325  0.00  0.00    +0.000 C 
BRANCH  26  32
ATOM     32  O6  UNL     1      -4.006  75.345 -37.831  0.00  0.00    +0.000 OA
ATOM     33  H38 UNL     1      -3.253  74.887 -37.334  0.00  0.00    +0.000 HD
ENDBRANCH  26  32
ENDBRANCH  22  30
ENDBRANCH   1  22
BRANCH  18  34
ATOM     34  O4  UNL     1     -19.160  72.958 -36.153  0.00  0.00    +0.000 OA
ATOM     35  H31 UNL     1     -19.649  73.543 -36.787  0.00  0.00    +0.000 HD
ENDBRANCH  18  34
TORSDOF 4
ENDMDL
