MODEL 1
REMARK VINA RESULT:       5.8      0.000      0.000
REMARK  Name = .\Withaferin A.pdb
REMARK  8 active torsions:
REMARK  status: ('A' for Active; 'I' for Inactive)
REMARK    1  A    between atoms: C1_1  and  C2_2
REMARK    2  A    between atoms: C3_3  and  O6_33
REMARK    3  A    between atoms: C5_7  and  C7_9
REMARK    4  A    between atoms: C7_9  and  C8_10
REMARK    5  A    between atoms: C7_9  and  C9_11
REMARK    6  A    between atoms: C13_15  and  C27_32
REMARK    7  A    between atoms: C21_23  and  C26_30
REMARK    8  A    between atoms: C25_28  and  O4_29
REMARK                            x       y       z     vdW  Elec       q    Type
REMARK                         _______ _______ _______ _____ _____    ______ ____
ROOT
ATOM      1  C9  UNL     1     -29.093  35.816 -11.881  0.00  0.00    +0.000 C 
ATOM      2  C10 UNL     1     -28.301  35.816 -13.198  0.00  0.00    +0.000 C 
ATOM      3  C11 UNL     1     -26.859  36.167 -12.858  0.00  0.00    +0.000 C 
ATOM      4  C12 UNL     1     -26.787  36.344 -11.334  0.00  0.00    +0.000 C 
ATOM      5  C13 UNL     1     -28.233  36.682 -10.900  0.00  0.00    +0.000 C 
ATOM      6  C14 UNL     1     -28.490  38.198 -11.102  0.00  0.00    +0.000 C 
ATOM      7  C15 UNL     1     -27.490  39.054 -10.336  0.00  0.00    +0.000 C 
ATOM      8  C16 UNL     1     -26.027  38.852 -10.808  0.00  0.00    +0.000 C 
ATOM      9  C17 UNL     1     -25.644  37.337 -10.914  0.00  0.00    +0.000 C 
ATOM     10  C18 UNL     1     -24.836  36.867  -9.688  0.00  0.00    +0.000 C 
ATOM     11  C19 UNL     1     -23.514  37.639  -9.552  0.00  0.00    +0.000 C 
ATOM     12  C20 UNL     1     -23.580  39.109  -9.740  0.00  0.00    +0.000 C 
ATOM     13  C21 UNL     1     -24.981  39.770  -9.994  0.00  0.00    +0.000 C 
ATOM     14  C22 UNL     1     -24.744  41.071 -10.755  0.00  0.00    +0.000 C 
ATOM     15  O3  UNL     1     -25.694  41.719 -11.172  0.00  0.00    +0.000 OA
ATOM     16  C23 UNL     1     -23.346  41.589 -10.987  0.00  0.00    +0.000 C 
ATOM     17  C24 UNL     1     -22.517  41.444  -9.705  0.00  0.00    +0.000 C 
ATOM     18  C25 UNL     1     -22.401  39.973  -9.231  0.00  0.00    +0.000 C 
ATOM     19  C26 UNL     1     -25.512  40.164  -8.587  0.00  0.00    +0.000 C 
ATOM     20  O5  UNL     1     -23.127  38.257 -10.766  0.00  0.00    +0.000 OA
ATOM     21  C27 UNL     1     -28.457  36.253  -9.426  0.00  0.00    +0.000 C 
ENDROOT
BRANCH   1  22
ATOM     22  C7  UNL     1     -30.602  36.209 -12.097  0.00  0.00    +0.000 C 
ATOM     23  C8  UNL     1     -30.776  37.288 -13.187  0.00  0.00    +0.000 C 
BRANCH  22  30
ATOM     24  C1  UNL     1     -31.409  35.806  -7.001  0.00  0.00    +0.000 C 
ATOM     25  C2  UNL     1     -31.311  36.636  -8.251  0.00  0.00    +0.000 C 
ATOM     26  C3  UNL     1     -31.694  37.926  -8.238  0.00  0.00    +0.000 C 
ATOM     27  C4  UNL     1     -31.599  38.719  -9.479  0.00  0.00    +0.000 C 
ATOM     28  O1  UNL     1     -31.773  39.966  -9.462  0.00  0.00    +0.000 OA
ATOM     29  O2  UNL     1     -31.298  38.077 -10.680  0.00  0.00    +0.000 OA
ATOM     30  C5  UNL     1     -31.306  36.651 -10.776  0.00  0.00    +0.000 C 
ATOM     31  C6  UNL     1     -30.693  36.034  -9.497  0.00  0.00    +0.000 C 
BRANCH  26  32
ATOM     32  O6  UNL     1     -32.184  38.506  -7.065  0.00  0.00    +0.000 OA
ATOM     33  H38 UNL     1     -31.579  38.704  -6.278  0.00  0.00    +0.000 HD
ENDBRANCH  26  32
ENDBRANCH  22  30
ENDBRANCH   1  22
BRANCH  18  34
ATOM     34  O4  UNL     1     -22.355  39.916  -7.829  0.00  0.00    +0.000 OA
ATOM     35  H31 UNL     1     -22.117  40.827  -7.514  0.00  0.00    +0.000 HD
ENDBRANCH  18  34
TORSDOF 4
ENDMDL
