MODEL 1
REMARK VINA RESULT:       6.5      0.000      0.000
REMARK  Name = .\Withaferin A.pdb
REMARK  8 active torsions:
REMARK  status: ('A' for Active; 'I' for Inactive)
REMARK    1  A    between atoms: C1_1  and  C2_2
REMARK    2  A    between atoms: C3_3  and  O6_33
REMARK    3  A    between atoms: C5_7  and  C7_9
REMARK    4  A    between atoms: C7_9  and  C8_10
REMARK    5  A    between atoms: C7_9  and  C9_11
REMARK    6  A    between atoms: C13_15  and  C27_32
REMARK    7  A    between atoms: C21_23  and  C26_30
REMARK    8  A    between atoms: C25_28  and  O4_29
REMARK                            x       y       z     vdW  Elec       q    Type
REMARK                         _______ _______ _______ _____ _____    ______ ____
ROOT
ATOM      1  C9  UNL     1       7.874  66.240 101.663  0.00  0.00    +0.000 C 
ATOM      2  C10 UNL     1       9.183  66.868 102.168  0.00  0.00    +0.000 C 
ATOM      3  C11 UNL     1       8.901  68.339 102.441  0.00  0.00    +0.000 C 
ATOM      4  C12 UNL     1       7.416  68.579 102.130  0.00  0.00    +0.000 C 
ATOM      5  C13 UNL     1       7.026  67.451 101.146  0.00  0.00    +0.000 C 
ATOM      6  C14 UNL     1       7.433  67.859  99.706  0.00  0.00    +0.000 C 
ATOM      7  C15 UNL     1       6.797  69.177  99.285  0.00  0.00    +0.000 C 
ATOM      8  C16 UNL     1       7.244  70.377 100.160  0.00  0.00    +0.000 C 
ATOM      9  C17 UNL     1       7.143  70.062 101.690  0.00  0.00    +0.000 C 
ATOM     10  C18 UNL     1       5.868  70.666 102.312  0.00  0.00    +0.000 C 
ATOM     11  C19 UNL     1       5.846  72.198 102.182  0.00  0.00    +0.000 C 
ATOM     12  C20 UNL     1       6.234  72.759 100.866  0.00  0.00    +0.000 C 
ATOM     13  C21 UNL     1       6.569  71.766  99.697  0.00  0.00    +0.000 C 
ATOM     14  C22 UNL     1       7.504  72.491  98.732  0.00  0.00    +0.000 C 
ATOM     15  O3  UNL     1       8.000  71.887  97.791  0.00  0.00    +0.000 OA
ATOM     16  C23 UNL     1       7.811  73.957  98.907  0.00  0.00    +0.000 C 
ATOM     17  C24 UNL     1       6.526  74.724  99.242  0.00  0.00    +0.000 C 
ATOM     18  C25 UNL     1       5.855  74.226 100.546  0.00  0.00    +0.000 C 
ATOM     19  C26 UNL     1       5.227  71.549  98.943  0.00  0.00    +0.000 C 
ATOM     20  O5  UNL     1       7.135  72.734 101.947  0.00  0.00    +0.000 OA
ATOM     21  C27 UNL     1       5.505  67.159 101.251  0.00  0.00    +0.000 C 
ENDROOT
BRANCH   1  22
ATOM     22  C7  UNL     1       8.134  65.037 100.682  0.00  0.00    +0.000 C 
ATOM     23  C8  UNL     1       9.615  64.601 100.668  0.00  0.00    +0.000 C 
BRANCH  22  30
ATOM     24  C1  UNL     1       8.739  64.904  95.543  0.00  0.00    +0.000 C 
ATOM     25  C2  UNL     1       7.860  64.835  96.762  0.00  0.00    +0.000 C 
ATOM     26  C3  UNL     1       6.520  64.849  96.632  0.00  0.00    +0.000 C 
ATOM     27  C4  UNL     1       5.679  64.791  97.842  0.00  0.00    +0.000 C 
ATOM     28  O1  UNL     1       4.435  64.618  97.754  0.00  0.00    +0.000 OA
ATOM     29  O2  UNL     1       6.275  64.915  99.098  0.00  0.00    +0.000 OA
ATOM     30  C5  UNL     1       7.638  65.324  99.229  0.00  0.00    +0.000 C 
ATOM     31  C6  UNL     1       8.495  64.658  98.126  0.00  0.00    +0.000 C 
BRANCH  26  32
ATOM     32  O6  UNL     1       5.935  64.925  95.367  0.00  0.00    +0.000 OA
ATOM     33  H38 UNL     1       5.795  65.812  94.898  0.00  0.00    +0.000 HD
ENDBRANCH  26  32
ENDBRANCH  22  30
ENDBRANCH   1  22
BRANCH  18  34
ATOM     34  O4  UNL     1       4.459  74.332 100.447  0.00  0.00    +0.000 OA
ATOM     35  H31 UNL     1       4.141  73.513  99.986  0.00  0.00    +0.000 HD
ENDBRANCH  18  34
TORSDOF 4
ENDMDL
MODEL 2
REMARK VINA RESULT:       9.3      1.905      2.827
REMARK  Name = .\Withaferin A.pdb
REMARK  8 active torsions:
REMARK  status: ('A' for Active; 'I' for Inactive)
REMARK    1  A    between atoms: C1_1  and  C2_2
REMARK    2  A    between atoms: C3_3  and  O6_33
REMARK    3  A    between atoms: C5_7  and  C7_9
REMARK    4  A    between atoms: C7_9  and  C8_10
REMARK    5  A    between atoms: C7_9  and  C9_11
REMARK    6  A    between atoms: C13_15  and  C27_32
REMARK    7  A    between atoms: C21_23  and  C26_30
REMARK    8  A    between atoms: C25_28  and  O4_29
REMARK                            x       y       z     vdW  Elec       q    Type
REMARK                         _______ _______ _______ _____ _____    ______ ____
ROOT
ATOM      1  C9  UNL     1       5.024  66.230 100.126  0.00  0.00    +0.000 C 
ATOM      2  C10 UNL     1       4.712  66.411 101.620  0.00  0.00    +0.000 C 
ATOM      3  C11 UNL     1       4.704  67.907 101.902  0.00  0.00    +0.000 C 
ATOM      4  C12 UNL     1       4.979  68.618 100.568  0.00  0.00    +0.000 C 
ATOM      5  C13 UNL     1       5.714  67.570  99.700  0.00  0.00    +0.000 C 
ATOM      6  C14 UNL     1       7.223  67.573 100.056  0.00  0.00    +0.000 C 
ATOM      7  C15 UNL     1       7.850  68.949  99.876  0.00  0.00    +0.000 C 
ATOM      8  C16 UNL     1       7.238  70.025 100.810  0.00  0.00    +0.000 C 
ATOM      9  C17 UNL     1       5.673  70.011 100.781  0.00  0.00    +0.000 C 
ATOM     10  C18 UNL     1       5.110  71.126  99.876  0.00  0.00    +0.000 C 
ATOM     11  C19 UNL     1       5.522  72.521 100.375  0.00  0.00    +0.000 C 
ATOM     12  C20 UNL     1       6.938  72.690 100.781  0.00  0.00    +0.000 C 
ATOM     13  C21 UNL     1       7.917  71.475 100.613  0.00  0.00    +0.000 C 
ATOM     14  C22 UNL     1       9.046  71.650 101.625  0.00  0.00    +0.000 C 
ATOM     15  O3  UNL     1       9.882  70.769 101.769  0.00  0.00    +0.000 OA
ATOM     16  C23 UNL     1       9.164  72.913 102.442  0.00  0.00    +0.000 C 
ATOM     17  C24 UNL     1       8.913  74.137 101.551  0.00  0.00    +0.000 C 
ATOM     18  C25 UNL     1       7.506  74.125 100.903  0.00  0.00    +0.000 C 
ATOM     19  C26 UNL     1       8.548  71.645  99.202  0.00  0.00    +0.000 C 
ATOM     20  O5  UNL     1       5.918  72.508 101.734  0.00  0.00    +0.000 OA
ATOM     21  C27 UNL     1       5.479  67.871  98.195  0.00  0.00    +0.000 C 
ENDROOT
BRANCH   1  22
ATOM     22  C7  UNL     1       5.776  64.878  99.837  0.00  0.00    +0.000 C 
ATOM     23  C8  UNL     1       6.902  64.604 100.856  0.00  0.00    +0.000 C 
BRANCH  22  30
ATOM     24  C1  UNL     1       5.835  66.380  94.885  0.00  0.00    +0.000 C 
ATOM     25  C2  UNL     1       6.547  65.884  96.113  0.00  0.00    +0.000 C 
ATOM     26  C3  UNL     1       7.829  65.478  96.034  0.00  0.00    +0.000 C 
ATOM     27  C4  UNL     1       8.504  64.986  97.249  0.00  0.00    +0.000 C 
ATOM     28  O1  UNL     1       9.745  64.774  97.256  0.00  0.00    +0.000 OA
ATOM     29  O2  UNL     1       7.758  64.770  98.409  0.00  0.00    +0.000 OA
ATOM     30  C5  UNL     1       6.329  64.794  98.380  0.00  0.00    +0.000 C 
ATOM     31  C6  UNL     1       5.841  65.932  97.452  0.00  0.00    +0.000 C 
BRANCH  26  32
ATOM     32  O6  UNL     1       8.507  65.516  94.814  0.00  0.00    +0.000 OA
ATOM     33  H38 UNL     1       9.440  65.134  94.712  0.00  0.00    +0.000 HD
ENDBRANCH  26  32
ENDBRANCH  22  30
ENDBRANCH   1  22
BRANCH  18  34
ATOM     34  O4  UNL     1       7.553  74.715  99.630  0.00  0.00    +0.000 OA
ATOM     35  H31 UNL     1       6.901  75.463  99.637  0.00  0.00    +0.000 HD
ENDBRANCH  18  34
TORSDOF 4
ENDMDL
