MODEL 1
REMARK VINA RESULT:       1.4      0.000      0.000
REMARK  Name = .\Withaferin A.pdb
REMARK  8 active torsions:
REMARK  status: ('A' for Active; 'I' for Inactive)
REMARK    1  A    between atoms: C1_1  and  C2_2
REMARK    2  A    between atoms: C3_3  and  O6_33
REMARK    3  A    between atoms: C5_7  and  C7_9
REMARK    4  A    between atoms: C7_9  and  C8_10
REMARK    5  A    between atoms: C7_9  and  C9_11
REMARK    6  A    between atoms: C13_15  and  C27_32
REMARK    7  A    between atoms: C21_23  and  C26_30
REMARK    8  A    between atoms: C25_28  and  O4_29
REMARK                            x       y       z     vdW  Elec       q    Type
REMARK                         _______ _______ _______ _____ _____    ______ ____
ROOT
ATOM      1  C9  UNL     1     -27.483  37.756   8.565  0.00  0.00    +0.000 C 
ATOM      2  C10 UNL     1     -27.690  36.239   8.429  0.00  0.00    +0.000 C 
ATOM      3  C11 UNL     1     -26.595  35.715   7.510  0.00  0.00    +0.000 C 
ATOM      4  C12 UNL     1     -25.717  36.915   7.126  0.00  0.00    +0.000 C 
ATOM      5  C13 UNL     1     -26.624  38.153   7.318  0.00  0.00    +0.000 C 
ATOM      6  C14 UNL     1     -27.506  38.346   6.056  0.00  0.00    +0.000 C 
ATOM      7  C15 UNL     1     -26.670  38.488   4.791  0.00  0.00    +0.000 C 
ATOM      8  C16 UNL     1     -25.824  37.228   4.474  0.00  0.00    +0.000 C 
ATOM      9  C17 UNL     1     -25.034  36.715   5.725  0.00  0.00    +0.000 C 
ATOM     10  C18 UNL     1     -23.558  37.160   5.688  0.00  0.00    +0.000 C 
ATOM     11  C19 UNL     1     -22.830  36.599   4.456  0.00  0.00    +0.000 C 
ATOM     12  C20 UNL     1     -23.549  36.685   3.162  0.00  0.00    +0.000 C 
ATOM     13  C21 UNL     1     -24.951  37.390   3.128  0.00  0.00    +0.000 C 
ATOM     14  C22 UNL     1     -25.726  36.817   1.945  0.00  0.00    +0.000 C 
ATOM     15  O3  UNL     1     -26.896  37.127   1.771  0.00  0.00    +0.000 OA
ATOM     16  C23 UNL     1     -25.061  35.884   0.963  0.00  0.00    +0.000 C 
ATOM     17  C24 UNL     1     -23.661  36.404   0.613  0.00  0.00    +0.000 C 
ATOM     18  C25 UNL     1     -22.739  36.518   1.853  0.00  0.00    +0.000 C 
ATOM     19  C26 UNL     1     -24.655  38.879   2.792  0.00  0.00    +0.000 C 
ATOM     20  O5  UNL     1     -23.502  35.485   3.897  0.00  0.00    +0.000 OA
ATOM     21  C27 UNL     1     -25.755  39.406   7.608  0.00  0.00    +0.000 C 
ENDROOT
BRANCH   1  22
ATOM     22  C7  UNL     1     -28.837  38.518   8.813  0.00  0.00    +0.000 C 
ATOM     23  C8  UNL     1     -29.967  38.026   7.884  0.00  0.00    +0.000 C 
BRANCH  22  30
ATOM     24  C1  UNL     1     -25.978  42.833   8.801  0.00  0.00    +0.000 C 
ATOM     25  C2  UNL     1     -27.161  42.043   8.313  0.00  0.00    +0.000 C 
ATOM     26  C3  UNL     1     -28.117  42.640   7.577  0.00  0.00    +0.000 C 
ATOM     27  C4  UNL     1     -29.274  41.848   7.118  0.00  0.00    +0.000 C 
ATOM     28  O1  UNL     1     -30.087  42.320   6.281  0.00  0.00    +0.000 OA
ATOM     29  O2  UNL     1     -29.456  40.555   7.609  0.00  0.00    +0.000 OA
ATOM     30  C5  UNL     1     -28.685  40.069   8.710  0.00  0.00    +0.000 C 
ATOM     31  C6  UNL     1     -27.221  40.553   8.580  0.00  0.00    +0.000 C 
BRANCH  26  32
ATOM     32  O6  UNL     1     -28.017  43.996   7.257  0.00  0.00    +0.000 OA
ATOM     33  H38 UNL     1     -27.773  44.690   7.953  0.00  0.00    +0.000 HD
ENDBRANCH  26  32
ENDBRANCH  22  30
ENDBRANCH   1  22
BRANCH  18  34
ATOM     34  O4  UNL     1     -21.862  37.604   1.708  0.00  0.00    +0.000 OA
ATOM     35  H31 UNL     1     -21.579  37.619   0.757  0.00  0.00    +0.000 HD
ENDBRANCH  18  34
TORSDOF 4
ENDMDL
