MODEL 1
REMARK VINA RESULT:      -3.5      0.000      0.000
REMARK  Name = .\Withaferin A.pdb
REMARK  8 active torsions:
REMARK  status: ('A' for Active; 'I' for Inactive)
REMARK    1  A    between atoms: C1_1  and  C2_2
REMARK    2  A    between atoms: C3_3  and  O6_33
REMARK    3  A    between atoms: C5_7  and  C7_9
REMARK    4  A    between atoms: C7_9  and  C8_10
REMARK    5  A    between atoms: C7_9  and  C9_11
REMARK    6  A    between atoms: C13_15  and  C27_32
REMARK    7  A    between atoms: C21_23  and  C26_30
REMARK    8  A    between atoms: C25_28  and  O4_29
REMARK                            x       y       z     vdW  Elec       q    Type
REMARK                         _______ _______ _______ _____ _____    ______ ____
ROOT
ATOM      1  C9  UNL     1     -20.711  82.962 130.264  0.00  0.00    +0.000 C 
ATOM      2  C10 UNL     1     -22.155  83.467 130.408  0.00  0.00    +0.000 C 
ATOM      3  C11 UNL     1     -23.049  82.505 129.638  0.00  0.00    +0.000 C 
ATOM      4  C12 UNL     1     -22.140  81.409 129.063  0.00  0.00    +0.000 C 
ATOM      5  C13 UNL     1     -20.734  82.050 128.991  0.00  0.00    +0.000 C 
ATOM      6  C14 UNL     1     -20.616  82.885 127.689  0.00  0.00    +0.000 C 
ATOM      7  C15 UNL     1     -20.884  82.046 126.446  0.00  0.00    +0.000 C 
ATOM      8  C16 UNL     1     -22.323  81.470 126.397  0.00  0.00    +0.000 C 
ATOM      9  C17 UNL     1     -22.733  80.790 127.746  0.00  0.00    +0.000 C 
ATOM     10  C18 UNL     1     -22.602  79.255 127.672  0.00  0.00    +0.000 C 
ATOM     11  C19 UNL     1     -23.520  78.661 126.590  0.00  0.00    +0.000 C 
ATOM     12  C20 UNL     1     -23.542  79.358 125.282  0.00  0.00    +0.000 C 
ATOM     13  C21 UNL     1     -22.595  80.592 125.073  0.00  0.00    +0.000 C 
ATOM     14  C22 UNL     1     -23.218  81.474 123.995  0.00  0.00    +0.000 C 
ATOM     15  O3  UNL     1     -22.723  82.560 123.729  0.00  0.00    +0.000 OA
ATOM     16  C23 UNL     1     -24.433  81.015 123.227  0.00  0.00    +0.000 C 
ATOM     17  C24 UNL     1     -24.275  79.542 122.829  0.00  0.00    +0.000 C 
ATOM     18  C25 UNL     1     -24.111  78.607 124.053  0.00  0.00    +0.000 C 
ATOM     19  C26 UNL     1     -21.284  80.008 124.472  0.00  0.00    +0.000 C 
ATOM     20  O5  UNL     1     -24.566  79.545 126.230  0.00  0.00    +0.000 OA
ATOM     21  C27 UNL     1     -19.645  80.947 129.067  0.00  0.00    +0.000 C 
ENDROOT
BRANCH   1  22
ATOM     22  C7  UNL     1     -19.663  84.135 130.322  0.00  0.00    +0.000 C 
ATOM     23  C8  UNL     1     -18.944  84.213 131.685  0.00  0.00    +0.000 C 
BRANCH  22  30
ATOM     24  C1  UNL     1     -21.711  88.707 131.624  0.00  0.00    +0.000 C 
ATOM     25  C2  UNL     1     -20.881  87.857 130.701  0.00  0.00    +0.000 C 
ATOM     26  C3  UNL     1     -20.472  88.346 129.515  0.00  0.00    +0.000 C 
ATOM     27  C4  UNL     1     -19.668  87.491 128.622  0.00  0.00    +0.000 C 
ATOM     28  O1  UNL     1     -19.116  87.970 127.596  0.00  0.00    +0.000 OA
ATOM     29  O2  UNL     1     -19.506  86.140 128.929  0.00  0.00    +0.000 OA
ATOM     30  C5  UNL     1     -20.285  85.519 129.955  0.00  0.00    +0.000 C 
ATOM     31  C6  UNL     1     -20.435  86.483 131.156  0.00  0.00    +0.000 C 
BRANCH  26  32
ATOM     32  O6  UNL     1     -20.811  89.646 129.133  0.00  0.00    +0.000 OA
ATOM     33  H38 UNL     1     -21.501  90.187 129.640  0.00  0.00    +0.000 HD
ENDBRANCH  26  32
ENDBRANCH  22  30
ENDBRANCH   1  22
BRANCH  18  34
ATOM     34  O4  UNL     1     -23.266  77.533 123.734  0.00  0.00    +0.000 OA
ATOM     35  H31 UNL     1     -22.446  77.923 123.332  0.00  0.00    +0.000 HD
ENDBRANCH  18  34
TORSDOF 4
ENDMDL
MODEL 2
REMARK VINA RESULT:      -3.1      2.540      4.534
REMARK  Name = .\Withaferin A.pdb
REMARK  8 active torsions:
REMARK  status: ('A' for Active; 'I' for Inactive)
REMARK    1  A    between atoms: C1_1  and  C2_2
REMARK    2  A    between atoms: C3_3  and  O6_33
REMARK    3  A    between atoms: C5_7  and  C7_9
REMARK    4  A    between atoms: C7_9  and  C8_10
REMARK    5  A    between atoms: C7_9  and  C9_11
REMARK    6  A    between atoms: C13_15  and  C27_32
REMARK    7  A    between atoms: C21_23  and  C26_30
REMARK    8  A    between atoms: C25_28  and  O4_29
REMARK                            x       y       z     vdW  Elec       q    Type
REMARK                         _______ _______ _______ _____ _____    ______ ____
ROOT
ATOM      1  C9  UNL     1     -19.101  83.622 125.743  0.00  0.00    +0.000 C 
ATOM      2  C10 UNL     1     -17.903  82.911 126.392  0.00  0.00    +0.000 C 
ATOM      3  C11 UNL     1     -18.384  81.540 126.848  0.00  0.00    +0.000 C 
ATOM      4  C12 UNL     1     -19.861  81.423 126.440  0.00  0.00    +0.000 C 
ATOM      5  C13 UNL     1     -20.358  82.882 126.313  0.00  0.00    +0.000 C 
ATOM      6  C14 UNL     1     -20.748  83.417 127.716  0.00  0.00    +0.000 C 
ATOM      7  C15 UNL     1     -21.806  82.550 128.384  0.00  0.00    +0.000 C 
ATOM      8  C16 UNL     1     -21.325  81.100 128.653  0.00  0.00    +0.000 C 
ATOM      9  C17 UNL     1     -20.654  80.457 127.392  0.00  0.00    +0.000 C 
ATOM     10  C18 UNL     1     -21.624  79.517 126.649  0.00  0.00    +0.000 C 
ATOM     11  C19 UNL     1     -22.075  78.349 127.542  0.00  0.00    +0.000 C 
ATOM     12  C20 UNL     1     -22.464  78.688 128.932  0.00  0.00    +0.000 C 
ATOM     13  C21 UNL     1     -22.452  80.196 129.368  0.00  0.00    +0.000 C 
ATOM     14  C22 UNL     1     -22.254  80.236 130.880  0.00  0.00    +0.000 C 
ATOM     15  O3  UNL     1     -22.097  81.307 131.450  0.00  0.00    +0.000 OA
ATOM     16  C23 UNL     1     -22.271  78.967 131.697  0.00  0.00    +0.000 C 
ATOM     17  C24 UNL     1     -23.417  78.061 131.231  0.00  0.00    +0.000 C 
ATOM     18  C25 UNL     1     -23.292  77.659 129.740  0.00  0.00    +0.000 C 
ATOM     19  C26 UNL     1     -23.891  80.716 129.090  0.00  0.00    +0.000 C 
ATOM     20  O5  UNL     1     -21.201  78.142 128.636  0.00  0.00    +0.000 OA
ATOM     21  C27 UNL     1     -21.550  82.950 125.321  0.00  0.00    +0.000 C 
ENDROOT
BRANCH   1  22
ATOM     22  C7  UNL     1     -19.019  85.185 125.902  0.00  0.00    +0.000 C 
ATOM     23  C8  UNL     1     -17.567  85.705 125.854  0.00  0.00    +0.000 C 
BRANCH  22  30
ATOM     24  C1  UNL     1     -19.684  85.277 131.034  0.00  0.00    +0.000 C 
ATOM     25  C2  UNL     1     -19.694  85.969 129.698  0.00  0.00    +0.000 C 
ATOM     26  C3  UNL     1     -20.205  87.209 129.581  0.00  0.00    +0.000 C 
ATOM     27  C4  UNL     1     -20.213  87.863 128.260  0.00  0.00    +0.000 C 
ATOM     28  O1  UNL     1     -20.511  89.081 128.145  0.00  0.00    +0.000 OA
ATOM     29  O2  UNL     1     -19.872  87.123 127.127  0.00  0.00    +0.000 OA
ATOM     30  C5  UNL     1     -19.739  85.701 127.188  0.00  0.00    +0.000 C 
ATOM     31  C6  UNL     1     -19.042  85.294 128.508  0.00  0.00    +0.000 C 
BRANCH  26  32
ATOM     32  O6  UNL     1     -20.727  87.865 130.698  0.00  0.00    +0.000 OA
ATOM     33  H38 UNL     1     -21.024  87.357 131.522  0.00  0.00    +0.000 HD
ENDBRANCH  26  32
ENDBRANCH  22  30
ENDBRANCH   1  22
BRANCH  18  34
ATOM     34  O4  UNL     1     -24.565  77.532 129.163  0.00  0.00    +0.000 OA
ATOM     35  H31 UNL     1     -24.780  78.408 128.748  0.00  0.00    +0.000 HD
ENDBRANCH  18  34
TORSDOF 4
ENDMDL
