MODEL 1
REMARK VINA RESULT:      -6.7      0.000      0.000
REMARK  Name = .\Withaferin A.pdb
REMARK  8 active torsions:
REMARK  status: ('A' for Active; 'I' for Inactive)
REMARK    1  A    between atoms: C1_1  and  C2_2
REMARK    2  A    between atoms: C3_3  and  O6_33
REMARK    3  A    between atoms: C5_7  and  C7_9
REMARK    4  A    between atoms: C7_9  and  C8_10
REMARK    5  A    between atoms: C7_9  and  C9_11
REMARK    6  A    between atoms: C13_15  and  C27_32
REMARK    7  A    between atoms: C21_23  and  C26_30
REMARK    8  A    between atoms: C25_28  and  O4_29
REMARK                            x       y       z     vdW  Elec       q    Type
REMARK                         _______ _______ _______ _____ _____    ______ ____
ROOT
ATOM      1  C9  UNL     1      -1.764  66.158  15.192  0.00  0.00    +0.000 C 
ATOM      2  C10 UNL     1      -1.684  67.433  14.339  0.00  0.00    +0.000 C 
ATOM      3  C11 UNL     1      -1.261  68.568  15.261  0.00  0.00    +0.000 C 
ATOM      4  C12 UNL     1      -1.056  67.961  16.657  0.00  0.00    +0.000 C 
ATOM      5  C13 UNL     1      -1.913  66.673  16.663  0.00  0.00    +0.000 C 
ATOM      6  C14 UNL     1      -3.384  67.035  16.994  0.00  0.00    +0.000 C 
ATOM      7  C15 UNL     1      -3.508  67.764  18.326  0.00  0.00    +0.000 C 
ATOM      8  C16 UNL     1      -2.768  69.128  18.346  0.00  0.00    +0.000 C 
ATOM      9  C17 UNL     1      -1.307  69.015  17.795  0.00  0.00    +0.000 C 
ATOM     10  C18 UNL     1      -0.272  68.950  18.936  0.00  0.00    +0.000 C 
ATOM     11  C19 UNL     1      -0.311  70.216  19.808  0.00  0.00    +0.000 C 
ATOM     12  C20 UNL     1      -1.652  70.714  20.198  0.00  0.00    +0.000 C 
ATOM     13  C21 UNL     1      -2.914  69.891  19.758  0.00  0.00    +0.000 C 
ATOM     14  C22 UNL     1      -4.094  70.857  19.696  0.00  0.00    +0.000 C 
ATOM     15  O3  UNL     1      -5.175  70.477  19.268  0.00  0.00    +0.000 OA
ATOM     16  C23 UNL     1      -3.957  72.279  20.181  0.00  0.00    +0.000 C 
ATOM     17  C24 UNL     1      -3.182  72.308  21.504  0.00  0.00    +0.000 C 
ATOM     18  C25 UNL     1      -1.756  71.715  21.374  0.00  0.00    +0.000 C 
ATOM     19  C26 UNL     1      -3.197  68.912  20.933  0.00  0.00    +0.000 C 
ATOM     20  O5  UNL     1      -0.928  71.304  19.144  0.00  0.00    +0.000 OA
ATOM     21  C27 UNL     1      -1.330  65.655  17.679  0.00  0.00    +0.000 C 
ENDROOT
BRANCH   1  22
ATOM     22  C7  UNL     1      -2.835  65.144  14.644  0.00  0.00    +0.000 C 
ATOM     23  C8  UNL     1      -2.989  65.225  13.111  0.00  0.00    +0.000 C 
BRANCH  22  30
ATOM     24  C1  UNL     1      -7.524  67.297  15.046  0.00  0.00    +0.000 C 
ATOM     25  C2  UNL     1      -6.610  66.112  15.188  0.00  0.00    +0.000 C 
ATOM     26  C3  UNL     1      -7.036  64.999  15.814  0.00  0.00    +0.000 C 
ATOM     27  C4  UNL     1      -6.118  63.852  15.950  0.00  0.00    +0.000 C 
ATOM     28  O1  UNL     1      -6.535  62.738  16.362  0.00  0.00    +0.000 OA
ATOM     29  O2  UNL     1      -4.775  64.005  15.603  0.00  0.00    +0.000 OA
ATOM     30  C5  UNL     1      -4.224  65.297  15.340  0.00  0.00    +0.000 C 
ATOM     31  C6  UNL     1      -5.240  66.149  14.541  0.00  0.00    +0.000 C 
BRANCH  26  32
ATOM     32  O6  UNL     1      -8.330  64.934  16.334  0.00  0.00    +0.000 OA
ATOM     33  H38 UNL     1      -9.127  64.705  15.753  0.00  0.00    +0.000 HD
ENDBRANCH  26  32
ENDBRANCH  22  30
ENDBRANCH   1  22
BRANCH  18  34
ATOM     34  O4  UNL     1      -1.388  71.070  22.565  0.00  0.00    +0.000 OA
ATOM     35  H31 UNL     1      -2.230  70.826  23.030  0.00  0.00    +0.000 HD
ENDBRANCH  18  34
TORSDOF 4
ENDMDL
