MODEL 1
REMARK VINA RESULT:      10.2      0.000      0.000
REMARK  Name = .\Withaferin A.pdb
REMARK  8 active torsions:
REMARK  status: ('A' for Active; 'I' for Inactive)
REMARK    1  A    between atoms: C1_1  and  C2_2
REMARK    2  A    between atoms: C3_3  and  O6_33
REMARK    3  A    between atoms: C5_7  and  C7_9
REMARK    4  A    between atoms: C7_9  and  C8_10
REMARK    5  A    between atoms: C7_9  and  C9_11
REMARK    6  A    between atoms: C13_15  and  C27_32
REMARK    7  A    between atoms: C21_23  and  C26_30
REMARK    8  A    between atoms: C25_28  and  O4_29
REMARK                            x       y       z     vdW  Elec       q    Type
REMARK                         _______ _______ _______ _____ _____    ______ ____
ROOT
ATOM      1  C9  UNL     1     -11.114  74.637  31.786  0.00  0.00    +0.000 C 
ATOM      2  C10 UNL     1     -10.404  74.287  30.469  0.00  0.00    +0.000 C 
ATOM      3  C11 UNL     1      -8.935  74.650  30.638  0.00  0.00    +0.000 C 
ATOM      4  C12 UNL     1      -8.765  75.185  32.067  0.00  0.00    +0.000 C 
ATOM      5  C13 UNL     1     -10.172  75.677  32.480  0.00  0.00    +0.000 C 
ATOM      6  C14 UNL     1     -10.399  77.109  31.930  0.00  0.00    +0.000 C 
ATOM      7  C15 UNL     1      -9.331  78.082  32.411  0.00  0.00    +0.000 C 
ATOM      8  C16 UNL     1      -7.905  77.712  31.927  0.00  0.00    +0.000 C 
ATOM      9  C17 UNL     1      -7.572  76.202  32.172  0.00  0.00    +0.000 C 
ATOM     10  C18 UNL     1      -6.704  76.008  33.431  0.00  0.00    +0.000 C 
ATOM     11  C19 UNL     1      -5.355  76.735  33.306  0.00  0.00    +0.000 C 
ATOM     12  C20 UNL     1      -5.392  78.117  32.770  0.00  0.00    +0.000 C 
ATOM     13  C21 UNL     1      -6.786  78.755  32.437  0.00  0.00    +0.000 C 
ATOM     14  C22 UNL     1      -6.561  79.823  31.371  0.00  0.00    +0.000 C 
ATOM     15  O3  UNL     1      -7.516  80.391  30.860  0.00  0.00    +0.000 OA
ATOM     16  C23 UNL     1      -5.165  80.212  30.948  0.00  0.00    +0.000 C 
ATOM     17  C24 UNL     1      -4.263  80.345  32.181  0.00  0.00    +0.000 C 
ATOM     18  C25 UNL     1      -4.160  79.029  32.991  0.00  0.00    +0.000 C 
ATOM     19  C26 UNL     1      -7.219  79.498  33.732  0.00  0.00    +0.000 C 
ATOM     20  O5  UNL     1      -5.026  77.025  31.960  0.00  0.00    +0.000 OA
ATOM     21  C27 UNL     1     -10.318  75.627  34.025  0.00  0.00    +0.000 C 
ENDROOT
BRANCH   1  22
ATOM     22  C7  UNL     1     -12.621  75.029  31.560  0.00  0.00    +0.000 C 
ATOM     23  C8  UNL     1     -13.004  75.053  30.065  0.00  0.00    +0.000 C 
BRANCH  22  30
ATOM     24  C1  UNL     1     -12.408  78.372  35.506  0.00  0.00    +0.000 C 
ATOM     25  C2  UNL     1     -12.495  78.089  34.031  0.00  0.00    +0.000 C 
ATOM     26  C3  UNL     1     -12.756  79.085  33.164  0.00  0.00    +0.000 C 
ATOM     27  C4  UNL     1     -12.848  78.781  31.724  0.00  0.00    +0.000 C 
ATOM     28  O1  UNL     1     -12.907  79.706  30.873  0.00  0.00    +0.000 OA
ATOM     29  O2  UNL     1     -12.852  77.450  31.303  0.00  0.00    +0.000 OA
ATOM     30  C5  UNL     1     -13.002  76.382  32.241  0.00  0.00    +0.000 C 
ATOM     31  C6  UNL     1     -12.197  76.692  33.524  0.00  0.00    +0.000 C 
BRANCH  26  32
ATOM     32  O6  UNL     1     -12.946  80.389  33.625  0.00  0.00    +0.000 OA
ATOM     33  H38 UNL     1     -13.746  80.642  34.192  0.00  0.00    +0.000 HD
ENDBRANCH  26  32
ENDBRANCH  22  30
ENDBRANCH   1  22
BRANCH  18  34
ATOM     34  O4  UNL     1      -4.030  79.309  34.360  0.00  0.00    +0.000 OA
ATOM     35  H31 UNL     1      -3.085  79.127  34.601  0.00  0.00    +0.000 HD
ENDBRANCH  18  34
TORSDOF 4
ENDMDL
MODEL 2
REMARK VINA RESULT:      12.0      2.146      3.775
REMARK  Name = .\Withaferin A.pdb
REMARK  8 active torsions:
REMARK  status: ('A' for Active; 'I' for Inactive)
REMARK    1  A    between atoms: C1_1  and  C2_2
REMARK    2  A    between atoms: C3_3  and  O6_33
REMARK    3  A    between atoms: C5_7  and  C7_9
REMARK    4  A    between atoms: C7_9  and  C8_10
REMARK    5  A    between atoms: C7_9  and  C9_11
REMARK    6  A    between atoms: C13_15  and  C27_32
REMARK    7  A    between atoms: C21_23  and  C26_30
REMARK    8  A    between atoms: C25_28  and  O4_29
REMARK                            x       y       z     vdW  Elec       q    Type
REMARK                         _______ _______ _______ _____ _____    ______ ____
ROOT
ATOM      1  C9  UNL     1      -9.913  77.262  36.265  0.00  0.00    +0.000 C 
ATOM      2  C10 UNL     1      -8.870  76.218  36.696  0.00  0.00    +0.000 C 
ATOM      3  C11 UNL     1      -7.539  76.630  36.081  0.00  0.00    +0.000 C 
ATOM      4  C12 UNL     1      -7.783  77.937  35.312  0.00  0.00    +0.000 C 
ATOM      5  C13 UNL     1      -9.297  77.937  34.994  0.00  0.00    +0.000 C 
ATOM      6  C14 UNL     1      -9.555  77.094  33.718  0.00  0.00    +0.000 C 
ATOM      7  C15 UNL     1      -8.759  77.604  32.525  0.00  0.00    +0.000 C 
ATOM      8  C16 UNL     1      -7.224  77.517  32.732  0.00  0.00    +0.000 C 
ATOM      9  C17 UNL     1      -6.781  78.106  34.114  0.00  0.00    +0.000 C 
ATOM     10  C18 UNL     1      -6.225  79.537  33.971  0.00  0.00    +0.000 C 
ATOM     11  C19 UNL     1      -4.983  79.573  33.066  0.00  0.00    +0.000 C 
ATOM     12  C20 UNL     1      -5.055  78.794  31.806  0.00  0.00    +0.000 C 
ATOM     13  C21 UNL     1      -6.395  78.054  31.458  0.00  0.00    +0.000 C 
ATOM     14  C22 UNL     1      -6.049  76.882  30.544  0.00  0.00    +0.000 C 
ATOM     15  O3  UNL     1      -6.915  76.080  30.222  0.00  0.00    +0.000 OA
ATOM     16  C23 UNL     1      -4.650  76.705  30.007  0.00  0.00    +0.000 C 
ATOM     17  C24 UNL     1      -4.094  78.057  29.543  0.00  0.00    +0.000 C 
ATOM     18  C25 UNL     1      -4.031  79.101  30.686  0.00  0.00    +0.000 C 
ATOM     19  C26 UNL     1      -7.213  79.063  30.603  0.00  0.00    +0.000 C 
ATOM     20  O5  UNL     1      -4.377  78.299  32.937  0.00  0.00    +0.000 OA
ATOM     21  C27 UNL     1      -9.803  79.396  34.829  0.00  0.00    +0.000 C 
ENDROOT
BRANCH   1  22
ATOM     22  C7  UNL     1     -11.357  76.647  36.158  0.00  0.00    +0.000 C 
ATOM     23  C8  UNL     1     -11.419  75.198  36.686  0.00  0.00    +0.000 C 
BRANCH  22  30
ATOM     24  C1  UNL     1     -12.386  79.214  31.784  0.00  0.00    +0.000 C 
ATOM     25  C2  UNL     1     -12.020  77.946  32.504  0.00  0.00    +0.000 C 
ATOM     26  C3  UNL     1     -12.018  76.771  31.848  0.00  0.00    +0.000 C 
ATOM     27  C4  UNL     1     -11.666  75.538  32.577  0.00  0.00    +0.000 C 
ATOM     28  O1  UNL     1     -11.475  74.457  31.961  0.00  0.00    +0.000 OA
ATOM     29  O2  UNL     1     -11.528  75.579  33.965  0.00  0.00    +0.000 OA
ATOM     30  C5  UNL     1     -11.942  76.724  34.713  0.00  0.00    +0.000 C 
ATOM     31  C6  UNL     1     -11.566  78.016  33.948  0.00  0.00    +0.000 C 
BRANCH  26  32
ATOM     32  O6  UNL     1     -12.353  76.719  30.493  0.00  0.00    +0.000 OA
ATOM     33  H38 UNL     1     -11.645  76.650  29.772  0.00  0.00    +0.000 HD
ENDBRANCH  26  32
ENDBRANCH  22  30
ENDBRANCH   1  22
BRANCH  18  34
ATOM     34  O4  UNL     1      -4.270  80.389  30.182  0.00  0.00    +0.000 OA
ATOM     35  H31 UNL     1      -3.383  80.782  29.970  0.00  0.00    +0.000 HD
ENDBRANCH  18  34
TORSDOF 4
ENDMDL
