MODEL 1
REMARK VINA RESULT:      -1.8      0.000      0.000
REMARK  Name = .\Withaferin A.pdb
REMARK  8 active torsions:
REMARK  status: ('A' for Active; 'I' for Inactive)
REMARK    1  A    between atoms: C1_1  and  C2_2
REMARK    2  A    between atoms: C3_3  and  O6_33
REMARK    3  A    between atoms: C5_7  and  C7_9
REMARK    4  A    between atoms: C7_9  and  C8_10
REMARK    5  A    between atoms: C7_9  and  C9_11
REMARK    6  A    between atoms: C13_15  and  C27_32
REMARK    7  A    between atoms: C21_23  and  C26_30
REMARK    8  A    between atoms: C25_28  and  O4_29
REMARK                            x       y       z     vdW  Elec       q    Type
REMARK                         _______ _______ _______ _____ _____    ______ ____
ROOT
ATOM      1  C9  UNL     1     -15.790  74.321 -11.734  0.00  0.00    +0.000 C 
ATOM      2  C10 UNL     1     -17.211  73.850 -11.386  0.00  0.00    +0.000 C 
ATOM      3  C11 UNL     1     -17.148  72.343 -11.177  0.00  0.00    +0.000 C 
ATOM      4  C12 UNL     1     -15.683  71.923 -11.369  0.00  0.00    +0.000 C 
ATOM      5  C13 UNL     1     -15.059  73.034 -12.245  0.00  0.00    +0.000 C 
ATOM      6  C14 UNL     1     -15.374  72.753 -13.736  0.00  0.00    +0.000 C 
ATOM      7  C15 UNL     1     -14.876  71.383 -14.177  0.00  0.00    +0.000 C 
ATOM      8  C16 UNL     1     -15.555  70.213 -13.419  0.00  0.00    +0.000 C 
ATOM      9  C17 UNL     1     -15.562  70.439 -11.870  0.00  0.00    +0.000 C 
ATOM     10  C18 UNL     1     -14.441  69.641 -11.173  0.00  0.00    +0.000 C 
ATOM     11  C19 UNL     1     -14.604  68.128 -11.392  0.00  0.00    +0.000 C 
ATOM     12  C20 UNL     1     -14.932  67.687 -12.769  0.00  0.00    +0.000 C 
ATOM     13  C21 UNL     1     -15.023  68.770 -13.902  0.00  0.00    +0.000 C 
ATOM     14  C22 UNL     1     -15.945  68.223 -14.987  0.00  0.00    +0.000 C 
ATOM     15  O3  UNL     1     -16.268  68.931 -15.932  0.00  0.00    +0.000 OA
ATOM     16  C23 UNL     1     -16.454  66.804 -14.929  0.00  0.00    +0.000 C 
ATOM     17  C24 UNL     1     -15.316  65.857 -14.527  0.00  0.00    +0.000 C 
ATOM     18  C25 UNL     1     -14.716  66.200 -13.140  0.00  0.00    +0.000 C 
ATOM     19  C26 UNL     1     -13.597  68.841 -14.518  0.00  0.00    +0.000 C 
ATOM     20  O5  UNL     1     -15.923  67.781 -11.773  0.00  0.00    +0.000 OA
ATOM     21  C27 UNL     1     -13.530  73.115 -11.987  0.00  0.00    +0.000 C 
ENDROOT
BRANCH   1  22
ATOM     22  C7  UNL     1     -15.798  75.593 -12.661  0.00  0.00    +0.000 C 
ATOM     23  C8  UNL     1     -16.574  75.357 -13.974  0.00  0.00    +0.000 C 
BRANCH  22  30
ATOM     24  C1  UNL     1     -10.973  76.790 -11.221  0.00  0.00    +0.000 C 
ATOM     25  C2  UNL     1     -11.946  76.285 -12.250  0.00  0.00    +0.000 C 
ATOM     26  C3  UNL     1     -11.551  76.101 -13.524  0.00  0.00    +0.000 C 
ATOM     27  C4  UNL     1     -12.526  75.614 -14.518  0.00  0.00    +0.000 C 
ATOM     28  O1  UNL     1     -12.152  75.257 -15.666  0.00  0.00    +0.000 OA
ATOM     29  O2  UNL     1     -13.876  75.536 -14.172  0.00  0.00    +0.000 OA
ATOM     30  C5  UNL     1     -14.363  76.128 -12.966  0.00  0.00    +0.000 C 
ATOM     31  C6  UNL     1     -13.348  75.900 -11.821  0.00  0.00    +0.000 C 
BRANCH  26  32
ATOM     32  O6  UNL     1     -10.234  76.374 -13.900  0.00  0.00    +0.000 OA
ATOM     33  H38 UNL     1      -9.652  75.675 -14.344  0.00  0.00    +0.000 HD
ENDBRANCH  26  32
ENDBRANCH  22  30
ENDBRANCH   1  22
BRANCH  18  34
ATOM     34  O4  UNL     1     -13.342  65.912 -13.121  0.00  0.00    +0.000 OA
ATOM     35  H31 UNL     1     -13.246  65.000 -12.741  0.00  0.00    +0.000 HD
ENDBRANCH  18  34
TORSDOF 4
ENDMDL
