MODEL 1
REMARK VINA RESULT:      -8.8      0.000      0.000
REMARK  Name = .\Withaferin A.pdb
REMARK  8 active torsions:
REMARK  status: ('A' for Active; 'I' for Inactive)
REMARK    1  A    between atoms: C1_1  and  C2_2
REMARK    2  A    between atoms: C3_3  and  O6_33
REMARK    3  A    between atoms: C5_7  and  C7_9
REMARK    4  A    between atoms: C7_9  and  C8_10
REMARK    5  A    between atoms: C7_9  and  C9_11
REMARK    6  A    between atoms: C13_15  and  C27_32
REMARK    7  A    between atoms: C21_23  and  C26_30
REMARK    8  A    between atoms: C25_28  and  O4_29
REMARK                            x       y       z     vdW  Elec       q    Type
REMARK                         _______ _______ _______ _____ _____    ______ ____
ROOT
ATOM      1  C9  UNL     1      -5.329  77.472  82.479  0.00  0.00    +0.000 C 
ATOM      2  C10 UNL     1      -4.187  78.432  82.108  0.00  0.00    +0.000 C 
ATOM      3  C11 UNL     1      -4.759  79.461  81.143  0.00  0.00    +0.000 C 
ATOM      4  C12 UNL     1      -6.249  79.134  80.966  0.00  0.00    +0.000 C 
ATOM      5  C13 UNL     1      -6.375  77.635  81.325  0.00  0.00    +0.000 C 
ATOM      6  C14 UNL     1      -6.000  76.776  80.090  0.00  0.00    +0.000 C 
ATOM      7  C15 UNL     1      -6.863  77.108  78.880  0.00  0.00    +0.000 C 
ATOM      8  C16 UNL     1      -6.691  78.570  78.391  0.00  0.00    +0.000 C 
ATOM      9  C17 UNL     1      -6.787  79.600  79.566  0.00  0.00    +0.000 C 
ATOM     10  C18 UNL     1      -8.178  80.263  79.629  0.00  0.00    +0.000 C 
ATOM     11  C19 UNL     1      -8.492  81.043  78.341  0.00  0.00    +0.000 C 
ATOM     12  C20 UNL     1      -8.170  80.368  77.061  0.00  0.00    +0.000 C 
ATOM     13  C21 UNL     1      -7.604  78.905  77.105  0.00  0.00    +0.000 C 
ATOM     14  C22 UNL     1      -6.792  78.687  75.832  0.00  0.00    +0.000 C 
ATOM     15  O3  UNL     1      -6.152  77.655  75.682  0.00  0.00    +0.000 OA
ATOM     16  C23 UNL     1      -6.781  79.721  74.734  0.00  0.00    +0.000 C 
ATOM     17  C24 UNL     1      -8.203  80.246  74.497  0.00  0.00    +0.000 C 
ATOM     18  C25 UNL     1      -8.813  80.906  75.759  0.00  0.00    +0.000 C 
ATOM     19  C26 UNL     1      -8.849  77.979  77.007  0.00  0.00    +0.000 C 
ATOM     20  O5  UNL     1      -7.323  81.353  77.604  0.00  0.00    +0.000 OA
ATOM     21  C27 UNL     1      -7.814  77.328  81.822  0.00  0.00    +0.000 C 
ENDROOT
BRANCH   1  22
ATOM     22  C7  UNL     1      -4.803  76.026  82.812  0.00  0.00    +0.000 C 
ATOM     23  C8  UNL     1      -5.880  75.152  83.488  0.00  0.00    +0.000 C 
BRANCH  22  30
ATOM     24  C1  UNL     1      -1.675  73.991  86.398  0.00  0.00    +0.000 C 
ATOM     25  C2  UNL     1      -1.880  74.750  85.116  0.00  0.00    +0.000 C 
ATOM     26  C3  UNL     1      -0.844  75.373  84.525  0.00  0.00    +0.000 C 
ATOM     27  C4  UNL     1      -1.071  76.121  83.274  0.00  0.00    +0.000 C 
ATOM     28  O1  UNL     1      -0.102  76.558  82.599  0.00  0.00    +0.000 OA
ATOM     29  O2  UNL     1      -2.376  76.330  82.828  0.00  0.00    +0.000 OA
ATOM     30  C5  UNL     1      -3.497  76.040  83.667  0.00  0.00    +0.000 C 
ATOM     31  C6  UNL     1      -3.241  74.730  84.450  0.00  0.00    +0.000 C 
BRANCH  26  32
ATOM     32  O6  UNL     1       0.430  75.319  85.094  0.00  0.00    +0.000 OA
ATOM     33  H38 UNL     1       0.929  74.444  85.198  0.00  0.00    +0.000 HD
ENDBRANCH  26  32
ENDBRANCH  22  30
ENDBRANCH   1  22
BRANCH  18  34
ATOM     34  O4  UNL     1     -10.199  80.685  75.801  0.00  0.00    +0.000 OA
ATOM     35  H31 UNL     1     -10.394  79.969  75.142  0.00  0.00    +0.000 HD
ENDBRANCH  18  34
TORSDOF 4
ENDMDL
MODEL 2
REMARK VINA RESULT:      -8.8      2.990      3.857
REMARK  Name = .\Withaferin A.pdb
REMARK  8 active torsions:
REMARK  status: ('A' for Active; 'I' for Inactive)
REMARK    1  A    between atoms: C1_1  and  C2_2
REMARK    2  A    between atoms: C3_3  and  O6_33
REMARK    3  A    between atoms: C5_7  and  C7_9
REMARK    4  A    between atoms: C7_9  and  C8_10
REMARK    5  A    between atoms: C7_9  and  C9_11
REMARK    6  A    between atoms: C13_15  and  C27_32
REMARK    7  A    between atoms: C21_23  and  C26_30
REMARK    8  A    between atoms: C25_28  and  O4_29
REMARK                            x       y       z     vdW  Elec       q    Type
REMARK                         _______ _______ _______ _____ _____    ______ ____
ROOT
ATOM      1  C9  UNL     1      -3.655  79.070  81.231  0.00  0.00    +0.000 C 
ATOM      2  C10 UNL     1      -3.774  80.582  80.979  0.00  0.00    +0.000 C 
ATOM      3  C11 UNL     1      -5.053  80.808  80.185  0.00  0.00    +0.000 C 
ATOM      4  C12 UNL     1      -5.713  79.434  79.994  0.00  0.00    +0.000 C 
ATOM      5  C13 UNL     1      -4.560  78.413  80.135  0.00  0.00    +0.000 C 
ATOM      6  C14 UNL     1      -3.815  78.287  78.780  0.00  0.00    +0.000 C 
ATOM      7  C15 UNL     1      -4.750  77.882  77.649  0.00  0.00    +0.000 C 
ATOM      8  C16 UNL     1      -5.863  78.926  77.374  0.00  0.00    +0.000 C 
ATOM      9  C17 UNL     1      -6.584  79.382  78.687  0.00  0.00    +0.000 C 
ATOM     10  C18 UNL     1      -7.934  78.662  78.873  0.00  0.00    +0.000 C 
ATOM     11  C19 UNL     1      -8.903  78.967  77.719  0.00  0.00    +0.000 C 
ATOM     12  C20 UNL     1      -8.341  78.912  76.348  0.00  0.00    +0.000 C 
ATOM     13  C21 UNL     1      -6.840  78.488  76.169  0.00  0.00    +0.000 C 
ATOM     14  C22 UNL     1      -6.343  79.096  74.861  0.00  0.00    +0.000 C 
ATOM     15  O3  UNL     1      -5.163  79.002  74.551  0.00  0.00    +0.000 OA
ATOM     16  C23 UNL     1      -7.293  79.800  73.924  0.00  0.00    +0.000 C 
ATOM     17  C24 UNL     1      -8.592  78.994  73.795  0.00  0.00    +0.000 C 
ATOM     18  C25 UNL     1      -9.318  78.811  75.151  0.00  0.00    +0.000 C 
ATOM     19  C26 UNL     1      -6.870  76.947  75.964  0.00  0.00    +0.000 C 
ATOM     20  O5  UNL     1      -8.539  80.138  77.011  0.00  0.00    +0.000 OA
ATOM     21  C27 UNL     1      -5.119  77.045  80.611  0.00  0.00    +0.000 C 
ENDROOT
BRANCH   1  22
ATOM     22  C7  UNL     1      -2.156  78.604  81.340  0.00  0.00    +0.000 C 
ATOM     23  C8  UNL     1      -1.956  77.520  82.420  0.00  0.00    +0.000 C 
BRANCH  22  30
ATOM     24  C1  UNL     1       0.815  81.539  84.397  0.00  0.00    +0.000 C 
ATOM     25  C2  UNL     1       0.545  80.881  83.072  0.00  0.00    +0.000 C 
ATOM     26  C3  UNL     1       1.300  81.183  81.999  0.00  0.00    +0.000 C 
ATOM     27  C4  UNL     1       1.011  80.534  80.707  0.00  0.00    +0.000 C 
ATOM     28  O1  UNL     1       1.802  80.649  79.736  0.00  0.00    +0.000 OA
ATOM     29  O2  UNL     1      -0.149  79.769  80.570  0.00  0.00    +0.000 OA
ATOM     30  C5  UNL     1      -1.169  79.791  81.571  0.00  0.00    +0.000 C 
ATOM     31  C6  UNL     1      -0.524  79.811  82.977  0.00  0.00    +0.000 C 
BRANCH  26  32
ATOM     32  O6  UNL     1       2.342  82.107  82.108  0.00  0.00    +0.000 OA
ATOM     33  H38 UNL     1       2.665  82.641  81.310  0.00  0.00    +0.000 HD
ENDBRANCH  26  32
ENDBRANCH  22  30
ENDBRANCH   1  22
BRANCH  18  34
ATOM     34  O4  UNL     1      -9.971  77.569  75.190  0.00  0.00    +0.000 OA
ATOM     35  H31 UNL     1     -10.262  77.428  76.128  0.00  0.00    +0.000 HD
ENDBRANCH  18  34
TORSDOF 4
ENDMDL
MODEL 3
REMARK VINA RESULT:      -8.7      3.665      4.858
REMARK  Name = .\Withaferin A.pdb
REMARK  8 active torsions:
REMARK  status: ('A' for Active; 'I' for Inactive)
REMARK    1  A    between atoms: C1_1  and  C2_2
REMARK    2  A    between atoms: C3_3  and  O6_33
REMARK    3  A    between atoms: C5_7  and  C7_9
REMARK    4  A    between atoms: C7_9  and  C8_10
REMARK    5  A    between atoms: C7_9  and  C9_11
REMARK    6  A    between atoms: C13_15  and  C27_32
REMARK    7  A    between atoms: C21_23  and  C26_30
REMARK    8  A    between atoms: C25_28  and  O4_29
REMARK                            x       y       z     vdW  Elec       q    Type
REMARK                         _______ _______ _______ _____ _____    ______ ____
ROOT
ATOM      1  C9  UNL     1      -3.061  78.905  80.519  0.00  0.00    +0.000 C 
ATOM      2  C10 UNL     1      -3.815  79.985  81.311  0.00  0.00    +0.000 C 
ATOM      3  C11 UNL     1      -5.092  80.297  80.545  0.00  0.00    +0.000 C 
ATOM      4  C12 UNL     1      -5.114  79.380  79.313  0.00  0.00    +0.000 C 
ATOM      5  C13 UNL     1      -3.634  79.007  79.065  0.00  0.00    +0.000 C 
ATOM      6  C14 UNL     1      -2.945  80.138  78.258  0.00  0.00    +0.000 C 
ATOM      7  C15 UNL     1      -3.653  80.411  76.939  0.00  0.00    +0.000 C 
ATOM      8  C16 UNL     1      -5.111  80.909  77.120  0.00  0.00    +0.000 C 
ATOM      9  C17 UNL     1      -5.918  80.018  78.124  0.00  0.00    +0.000 C 
ATOM     10  C18 UNL     1      -6.832  79.017  77.388  0.00  0.00    +0.000 C 
ATOM     11  C19 UNL     1      -7.872  79.737  76.514  0.00  0.00    +0.000 C 
ATOM     12  C20 UNL     1      -7.379  80.867  75.689  0.00  0.00    +0.000 C 
ATOM     13  C21 UNL     1      -5.846  81.202  75.715  0.00  0.00    +0.000 C 
ATOM     14  C22 UNL     1      -5.691  82.676  75.356  0.00  0.00    +0.000 C 
ATOM     15  O3  UNL     1      -4.592  83.210  75.417  0.00  0.00    +0.000 OA
ATOM     16  C23 UNL     1      -6.876  83.491  74.900  0.00  0.00    +0.000 C 
ATOM     17  C24 UNL     1      -7.716  82.680  73.905  0.00  0.00    +0.000 C 
ATOM     18  C25 UNL     1      -8.256  81.362  74.514  0.00  0.00    +0.000 C 
ATOM     19  C26 UNL     1      -5.227  80.387  74.544  0.00  0.00    +0.000 C 
ATOM     20  O5  UNL     1      -8.058  81.085  76.903  0.00  0.00    +0.000 OA
ATOM     21  C27 UNL     1      -3.548  77.643  78.329  0.00  0.00    +0.000 C 
ENDROOT
BRANCH   1  22
ATOM     22  C7  UNL     1      -1.502  79.006  80.716  0.00  0.00    +0.000 C 
ATOM     23  C8  UNL     1      -0.923  77.777  81.448  0.00  0.00    +0.000 C 
BRANCH  22  30
ATOM     24  C1  UNL     1       0.874  81.540  84.552  0.00  0.00    +0.000 C 
ATOM     25  C2  UNL     1       0.458  81.435  83.111  0.00  0.00    +0.000 C 
ATOM     26  C3  UNL     1       0.608  82.487  82.284  0.00  0.00    +0.000 C 
ATOM     27  C4  UNL     1       0.182  82.366  80.878  0.00  0.00    +0.000 C 
ATOM     28  O1  UNL     1       0.473  83.256  80.037  0.00  0.00    +0.000 OA
ATOM     29  O2  UNL     1      -0.538  81.240  80.475  0.00  0.00    +0.000 OA
ATOM     30  C5  UNL     1      -1.067  80.322  81.434  0.00  0.00    +0.000 C 
ATOM     31  C6  UNL     1      -0.047  80.110  82.577  0.00  0.00    +0.000 C 
BRANCH  26  32
ATOM     32  O6  UNL     1       1.154  83.683  82.757  0.00  0.00    +0.000 OA
ATOM     33  H38 UNL     1       0.578  84.497  82.934  0.00  0.00    +0.000 HD
ENDBRANCH  26  32
ENDBRANCH  22  30
ENDBRANCH   1  22
BRANCH  18  34
ATOM     34  O4  UNL     1      -8.320  80.363  73.530  0.00  0.00    +0.000 OA
ATOM     35  H31 UNL     1      -7.681  80.622  72.816  0.00  0.00    +0.000 HD
ENDBRANCH  18  34
TORSDOF 4
ENDMDL
MODEL 4
REMARK VINA RESULT:      -8.7      3.777      5.016
REMARK  Name = .\Withaferin A.pdb
REMARK  8 active torsions:
REMARK  status: ('A' for Active; 'I' for Inactive)
REMARK    1  A    between atoms: C1_1  and  C2_2
REMARK    2  A    between atoms: C3_3  and  O6_33
REMARK    3  A    between atoms: C5_7  and  C7_9
REMARK    4  A    between atoms: C7_9  and  C8_10
REMARK    5  A    between atoms: C7_9  and  C9_11
REMARK    6  A    between atoms: C13_15  and  C27_32
REMARK    7  A    between atoms: C21_23  and  C26_30
REMARK    8  A    between atoms: C25_28  and  O4_29
REMARK                            x       y       z     vdW  Elec       q    Type
REMARK                         _______ _______ _______ _____ _____    ______ ____
ROOT
ATOM      1  C9  UNL     1      -1.790  79.457  81.604  0.00  0.00    +0.000 C 
ATOM      2  C10 UNL     1      -2.007  80.877  81.058  0.00  0.00    +0.000 C 
ATOM      3  C11 UNL     1      -3.478  80.999  80.688  0.00  0.00    +0.000 C 
ATOM      4  C12 UNL     1      -4.144  79.662  81.044  0.00  0.00    +0.000 C 
ATOM      5  C13 UNL     1      -2.994  78.628  81.042  0.00  0.00    +0.000 C 
ATOM      6  C14 UNL     1      -2.730  78.154  79.589  0.00  0.00    +0.000 C 
ATOM      7  C15 UNL     1      -3.978  77.564  78.945  0.00  0.00    +0.000 C 
ATOM      8  C16 UNL     1      -5.134  78.587  78.806  0.00  0.00    +0.000 C 
ATOM      9  C17 UNL     1      -5.393  79.371  80.136  0.00  0.00    +0.000 C 
ATOM     10  C18 UNL     1      -6.598  78.798  80.909  0.00  0.00    +0.000 C 
ATOM     11  C19 UNL     1      -7.895  78.896  80.088  0.00  0.00    +0.000 C 
ATOM     12  C20 UNL     1      -7.811  78.498  78.662  0.00  0.00    +0.000 C 
ATOM     13  C21 UNL     1      -6.445  77.951  78.116  0.00  0.00    +0.000 C 
ATOM     14  C22 UNL     1      -6.411  78.217  76.613  0.00  0.00    +0.000 C 
ATOM     15  O3  UNL     1      -5.396  77.981  75.972  0.00  0.00    +0.000 OA
ATOM     16  C23 UNL     1      -7.625  78.749  75.894  0.00  0.00    +0.000 C 
ATOM     17  C24 UNL     1      -8.883  78.019  76.380  0.00  0.00    +0.000 C 
ATOM     18  C25 UNL     1      -9.124  78.192  77.901  0.00  0.00    +0.000 C 
ATOM     19  C26 UNL     1      -6.518  76.408  78.296  0.00  0.00    +0.000 C 
ATOM     20  O5  UNL     1      -7.799  79.852  79.048  0.00  0.00    +0.000 OA
ATOM     21  C27 UNL     1      -3.347  77.441  81.978  0.00  0.00    +0.000 C 
ENDROOT
BRANCH   1  22
ATOM     22  C7  UNL     1      -0.331  78.934  81.333  0.00  0.00    +0.000 C 
ATOM     23  C8  UNL     1      -0.047  77.593  82.042  0.00  0.00    +0.000 C 
BRANCH  22  30
ATOM     24  C1  UNL     1       2.879  82.797  80.084  0.00  0.00    +0.000 C 
ATOM     25  C2  UNL     1       1.975  82.111  81.071  0.00  0.00    +0.000 C 
ATOM     26  C3  UNL     1       1.947  82.511  82.356  0.00  0.00    +0.000 C 
ATOM     27  C4  UNL     1       1.060  81.818  83.308  0.00  0.00    +0.000 C 
ATOM     28  O1  UNL     1       0.871  82.277  84.465  0.00  0.00    +0.000 OA
ATOM     29  O2  UNL     1       0.412  80.647  82.912  0.00  0.00    +0.000 OA
ATOM     30  C5  UNL     1       0.765  79.984  81.696  0.00  0.00    +0.000 C 
ATOM     31  C6  UNL     1       1.030  81.029  80.586  0.00  0.00    +0.000 C 
BRANCH  26  32
ATOM     32  O6  UNL     1       2.755  83.567  82.783  0.00  0.00    +0.000 OA
ATOM     33  H38 UNL     1       2.945  83.728  83.765  0.00  0.00    +0.000 HD
ENDBRANCH  26  32
ENDBRANCH  22  30
ENDBRANCH   1  22
BRANCH  18  34
ATOM     34  O4  UNL     1      -9.710  77.034  78.435  0.00  0.00    +0.000 OA
ATOM     35  H31 UNL     1      -9.862  77.209  79.400  0.00  0.00    +0.000 HD
ENDBRANCH  18  34
TORSDOF 4
ENDMDL
MODEL 5
REMARK VINA RESULT:      -8.6      3.954      7.269
REMARK  Name = .\Withaferin A.pdb
REMARK  8 active torsions:
REMARK  status: ('A' for Active; 'I' for Inactive)
REMARK    1  A    between atoms: C1_1  and  C2_2
REMARK    2  A    between atoms: C3_3  and  O6_33
REMARK    3  A    between atoms: C5_7  and  C7_9
REMARK    4  A    between atoms: C7_9  and  C8_10
REMARK    5  A    between atoms: C7_9  and  C9_11
REMARK    6  A    between atoms: C13_15  and  C27_32
REMARK    7  A    between atoms: C21_23  and  C26_30
REMARK    8  A    between atoms: C25_28  and  O4_29
REMARK                            x       y       z     vdW  Elec       q    Type
REMARK                         _______ _______ _______ _____ _____    ______ ____
ROOT
ATOM      1  C9  UNL     1      -5.050  78.308  79.893  0.00  0.00    +0.000 C 
ATOM      2  C10 UNL     1      -5.653  79.462  80.709  0.00  0.00    +0.000 C 
ATOM      3  C11 UNL     1      -4.650  80.606  80.683  0.00  0.00    +0.000 C 
ATOM      4  C12 UNL     1      -3.463  80.145  79.824  0.00  0.00    +0.000 C 
ATOM      5  C13 UNL     1      -3.511  78.600  79.871  0.00  0.00    +0.000 C 
ATOM      6  C14 UNL     1      -2.817  78.102  81.165  0.00  0.00    +0.000 C 
ATOM      7  C15 UNL     1      -1.380  78.593  81.269  0.00  0.00    +0.000 C 
ATOM      8  C16 UNL     1      -1.267  80.138  81.349  0.00  0.00    +0.000 C 
ATOM      9  C17 UNL     1      -2.125  80.850  80.249  0.00  0.00    +0.000 C 
ATOM     10  C18 UNL     1      -1.259  81.302  79.057  0.00  0.00    +0.000 C 
ATOM     11  C19 UNL     1      -0.183  82.312  79.489  0.00  0.00    +0.000 C 
ATOM     12  C20 UNL     1       0.565  81.995  80.730  0.00  0.00    +0.000 C 
ATOM     13  C21 UNL     1       0.259  80.643  81.466  0.00  0.00    +0.000 C 
ATOM     14  C22 UNL     1       0.624  80.827  82.936  0.00  0.00    +0.000 C 
ATOM     15  O3  UNL     1       0.371  79.945  83.745  0.00  0.00    +0.000 OA
ATOM     16  C23 UNL     1       1.320  82.079  83.410  0.00  0.00    +0.000 C 
ATOM     17  C24 UNL     1       2.433  82.463  82.427  0.00  0.00    +0.000 C 
ATOM     18  C25 UNL     1       1.899  82.733  80.998  0.00  0.00    +0.000 C 
ATOM     19  C26 UNL     1       1.268  79.617  80.878  0.00  0.00    +0.000 C 
ATOM     20  O5  UNL     1      -0.491  82.926  80.727  0.00  0.00    +0.000 OA
ATOM     21  C27 UNL     1      -2.844  78.010  78.599  0.00  0.00    +0.000 C 
ENDROOT
BRANCH   1  22
ATOM     22  C7  UNL     1      -5.535  76.902  80.406  0.00  0.00    +0.000 C 
ATOM     23  C8  UNL     1      -6.963  76.564  79.929  0.00  0.00    +0.000 C 
BRANCH  22  30
ATOM     24  C1  UNL     1      -7.645  76.123  85.068  0.00  0.00    +0.000 C 
ATOM     25  C2  UNL     1      -6.502  75.965  84.104  0.00  0.00    +0.000 C 
ATOM     26  C3  UNL     1      -5.313  75.501  84.533  0.00  0.00    +0.000 C 
ATOM     27  C4  UNL     1      -4.203  75.364  83.571  0.00  0.00    +0.000 C 
ATOM     28  O1  UNL     1      -3.143  74.766  83.891  0.00  0.00    +0.000 OA
ATOM     29  O2  UNL     1      -4.341  75.891  82.286  0.00  0.00    +0.000 OA
ATOM     30  C5  UNL     1      -5.431  76.755  81.957  0.00  0.00    +0.000 C 
ATOM     31  C6  UNL     1      -6.727  76.246  82.632  0.00  0.00    +0.000 C 
BRANCH  26  32
ATOM     32  O6  UNL     1      -5.131  75.160  85.875  0.00  0.00    +0.000 OA
ATOM     33  H38 UNL     1      -5.798  75.432  86.587  0.00  0.00    +0.000 HD
ENDBRANCH  26  32
ENDBRANCH  22  30
ENDBRANCH   1  22
BRANCH  18  34
ATOM     34  O4  UNL     1       2.848  82.337  80.042  0.00  0.00    +0.000 OA
ATOM     35  H31 UNL     1       2.451  81.577  79.542  0.00  0.00    +0.000 HD
ENDBRANCH  18  34
TORSDOF 4
ENDMDL
MODEL 6
REMARK VINA RESULT:      -8.5      2.127      3.256
REMARK  Name = .\Withaferin A.pdb
REMARK  8 active torsions:
REMARK  status: ('A' for Active; 'I' for Inactive)
REMARK    1  A    between atoms: C1_1  and  C2_2
REMARK    2  A    between atoms: C3_3  and  O6_33
REMARK    3  A    between atoms: C5_7  and  C7_9
REMARK    4  A    between atoms: C7_9  and  C8_10
REMARK    5  A    between atoms: C7_9  and  C9_11
REMARK    6  A    between atoms: C13_15  and  C27_32
REMARK    7  A    between atoms: C21_23  and  C26_30
REMARK    8  A    between atoms: C25_28  and  O4_29
REMARK                            x       y       z     vdW  Elec       q    Type
REMARK                         _______ _______ _______ _____ _____    ______ ____
ROOT
ATOM      1  C9  UNL     1      -3.541  78.610  79.684  0.00  0.00    +0.000 C 
ATOM      2  C10 UNL     1      -3.268  77.959  78.319  0.00  0.00    +0.000 C 
ATOM      3  C11 UNL     1      -4.176  78.640  77.305  0.00  0.00    +0.000 C 
ATOM      4  C12 UNL     1      -4.966  79.719  78.060  0.00  0.00    +0.000 C 
ATOM      5  C13 UNL     1      -4.958  79.261  79.537  0.00  0.00    +0.000 C 
ATOM      6  C14 UNL     1      -6.089  78.223  79.761  0.00  0.00    +0.000 C 
ATOM      7  C15 UNL     1      -7.456  78.777  79.382  0.00  0.00    +0.000 C 
ATOM      8  C16 UNL     1      -7.570  79.144  77.879  0.00  0.00    +0.000 C 
ATOM      9  C17 UNL     1      -6.357  80.004  77.387  0.00  0.00    +0.000 C 
ATOM     10  C18 UNL     1      -6.714  81.502  77.315  0.00  0.00    +0.000 C 
ATOM     11  C19 UNL     1      -7.860  81.764  76.325  0.00  0.00    +0.000 C 
ATOM     12  C20 UNL     1      -9.019  80.840  76.391  0.00  0.00    +0.000 C 
ATOM     13  C21 UNL     1      -9.024  79.721  77.491  0.00  0.00    +0.000 C 
ATOM     14  C22 UNL     1      -9.906  78.583  76.985  0.00  0.00    +0.000 C 
ATOM     15  O3  UNL     1      -9.982  77.539  77.618  0.00  0.00    +0.000 OA
ATOM     16  C23 UNL     1     -10.712  78.733  75.718  0.00  0.00    +0.000 C 
ATOM     17  C24 UNL     1     -11.376  80.115  75.681  0.00  0.00    +0.000 C 
ATOM     18  C25 UNL     1     -10.348  81.273  75.724  0.00  0.00    +0.000 C 
ATOM     19  C26 UNL     1      -9.756  80.347  78.711  0.00  0.00    +0.000 C 
ATOM     20  O5  UNL     1      -8.025  80.701  75.403  0.00  0.00    +0.000 OA
ATOM     21  C27 UNL     1      -5.114  80.490  80.474  0.00  0.00    +0.000 C 
ENDROOT
BRANCH   1  22
ATOM     22  C7  UNL     1      -3.299  77.612  80.877  0.00  0.00    +0.000 C 
ATOM     23  C8  UNL     1      -4.391  77.717  81.961  0.00  0.00    +0.000 C 
BRANCH  22  30
ATOM     24  C1  UNL     1       0.377  80.412  83.209  0.00  0.00    +0.000 C 
ATOM     25  C2  UNL     1      -0.344  79.108  83.001  0.00  0.00    +0.000 C 
ATOM     26  C3  UNL     1       0.145  77.972  83.532  0.00  0.00    +0.000 C 
ATOM     27  C4  UNL     1      -0.573  76.703  83.305  0.00  0.00    +0.000 C 
ATOM     28  O1  UNL     1      -0.252  75.660  83.932  0.00  0.00    +0.000 OA
ATOM     29  O2  UNL     1      -1.630  76.668  82.395  0.00  0.00    +0.000 OA
ATOM     30  C5  UNL     1      -1.882  77.766  81.515  0.00  0.00    +0.000 C 
ATOM     31  C6  UNL     1      -1.669  79.101  82.266  0.00  0.00    +0.000 C 
BRANCH  26  32
ATOM     32  O6  UNL     1       1.322  77.993  84.282  0.00  0.00    +0.000 OA
ATOM     33  H38 UNL     1       2.120  77.419  84.038  0.00  0.00    +0.000 HD
ENDBRANCH  26  32
ENDBRANCH  22  30
ENDBRANCH   1  22
BRANCH  18  34
ATOM     34  O4  UNL     1     -10.880  82.369  76.420  0.00  0.00    +0.000 OA
ATOM     35  H31 UNL     1     -11.250  82.989  75.739  0.00  0.00    +0.000 HD
ENDBRANCH  18  34
TORSDOF 4
ENDMDL
MODEL 7
REMARK VINA RESULT:      -8.5      4.462      8.351
REMARK  Name = .\Withaferin A.pdb
REMARK  8 active torsions:
REMARK  status: ('A' for Active; 'I' for Inactive)
REMARK    1  A    between atoms: C1_1  and  C2_2
REMARK    2  A    between atoms: C3_3  and  O6_33
REMARK    3  A    between atoms: C5_7  and  C7_9
REMARK    4  A    between atoms: C7_9  and  C8_10
REMARK    5  A    between atoms: C7_9  and  C9_11
REMARK    6  A    between atoms: C13_15  and  C27_32
REMARK    7  A    between atoms: C21_23  and  C26_30
REMARK    8  A    between atoms: C25_28  and  O4_29
REMARK                            x       y       z     vdW  Elec       q    Type
REMARK                         _______ _______ _______ _____ _____    ______ ____
ROOT
ATOM      1  C9  UNL     1      -5.132  78.932  79.666  0.00  0.00    +0.000 C 
ATOM      2  C10 UNL     1      -5.647  80.239  80.290  0.00  0.00    +0.000 C 
ATOM      3  C11 UNL     1      -4.513  81.252  80.214  0.00  0.00    +0.000 C 
ATOM      4  C12 UNL     1      -3.334  80.557  79.516  0.00  0.00    +0.000 C 
ATOM      5  C13 UNL     1      -3.572  79.045  79.737  0.00  0.00    +0.000 C 
ATOM      6  C14 UNL     1      -3.034  78.638  81.133  0.00  0.00    +0.000 C 
ATOM      7  C15 UNL     1      -1.558  78.975  81.297  0.00  0.00    +0.000 C 
ATOM      8  C16 UNL     1      -1.266  80.496  81.207  0.00  0.00    +0.000 C 
ATOM      9  C17 UNL     1      -1.953  81.157  79.966  0.00  0.00    +0.000 C 
ATOM     10  C18 UNL     1      -0.959  81.357  78.804  0.00  0.00    +0.000 C 
ATOM     11  C19 UNL     1       0.199  82.286  79.204  0.00  0.00    +0.000 C 
ATOM     12  C20 UNL     1       0.816  82.045  80.531  0.00  0.00    +0.000 C 
ATOM     13  C21 UNL     1       0.299  80.838  81.391  0.00  0.00    +0.000 C 
ATOM     14  C22 UNL     1       0.582  81.161  82.855  0.00  0.00    +0.000 C 
ATOM     15  O3  UNL     1       0.169  80.421  83.737  0.00  0.00    +0.000 OA
ATOM     16  C23 UNL     1       1.390  82.377  83.237  0.00  0.00    +0.000 C 
ATOM     17  C24 UNL     1       2.605  82.509  82.311  0.00  0.00    +0.000 C 
ATOM     18  C25 UNL     1       2.208  82.657  80.821  0.00  0.00    +0.000 C 
ATOM     19  C26 UNL     1       1.214  79.640  81.011  0.00  0.00    +0.000 C 
ATOM     20  O5  UNL     1      -0.118  83.080  80.333  0.00  0.00    +0.000 OA
ATOM     21  C27 UNL     1      -2.895  78.231  78.602  0.00  0.00    +0.000 C 
ENDROOT
BRANCH   1  22
ATOM     22  C7  UNL     1      -5.819  77.664  80.296  0.00  0.00    +0.000 C 
ATOM     23  C8  UNL     1      -6.069  76.553  79.255  0.00  0.00    +0.000 C 
BRANCH  22  30
ATOM     24  C1  UNL     1     -10.945  78.361  80.448  0.00  0.00    +0.000 C 
ATOM     25  C2  UNL     1      -9.663  77.916  81.096  0.00  0.00    +0.000 C 
ATOM     26  C3  UNL     1      -9.637  77.612  82.407  0.00  0.00    +0.000 C 
ATOM     27  C4  UNL     1      -8.366  77.188  83.024  0.00  0.00    +0.000 C 
ATOM     28  O1  UNL     1      -8.340  76.722  84.193  0.00  0.00    +0.000 OA
ATOM     29  O2  UNL     1      -7.182  77.290  82.292  0.00  0.00    +0.000 OA
ATOM     30  C5  UNL     1      -7.139  78.006  81.055  0.00  0.00    +0.000 C 
ATOM     31  C6  UNL     1      -8.425  77.725  80.242  0.00  0.00    +0.000 C 
BRANCH  26  32
ATOM     32  O6  UNL     1     -10.799  77.705  83.176  0.00  0.00    +0.000 OA
ATOM     33  H38 UNL     1     -11.302  78.578  83.277  0.00  0.00    +0.000 HD
ENDBRANCH  26  32
ENDBRANCH  22  30
ENDBRANCH   1  22
BRANCH  18  34
ATOM     34  O4  UNL     1       3.165  82.041  79.999  0.00  0.00    +0.000 OA
ATOM     35  H31 UNL     1       2.665  81.544  79.301  0.00  0.00    +0.000 HD
ENDBRANCH  18  34
TORSDOF 4
ENDMDL
MODEL 8
REMARK VINA RESULT:      -8.3      2.003      3.488
REMARK  Name = .\Withaferin A.pdb
REMARK  8 active torsions:
REMARK  status: ('A' for Active; 'I' for Inactive)
REMARK    1  A    between atoms: C1_1  and  C2_2
REMARK    2  A    between atoms: C3_3  and  O6_33
REMARK    3  A    between atoms: C5_7  and  C7_9
REMARK    4  A    between atoms: C7_9  and  C8_10
REMARK    5  A    between atoms: C7_9  and  C9_11
REMARK    6  A    between atoms: C13_15  and  C27_32
REMARK    7  A    between atoms: C21_23  and  C26_30
REMARK    8  A    between atoms: C25_28  and  O4_29
REMARK                            x       y       z     vdW  Elec       q    Type
REMARK                         _______ _______ _______ _____ _____    ______ ____
ROOT
ATOM      1  C9  UNL     1      -2.683  79.247  79.997  0.00  0.00    +0.000 C 
ATOM      2  C10 UNL     1      -2.801  77.874  79.316  0.00  0.00    +0.000 C 
ATOM      3  C11 UNL     1      -3.755  78.034  78.140  0.00  0.00    +0.000 C 
ATOM      4  C12 UNL     1      -4.179  79.509  78.102  0.00  0.00    +0.000 C 
ATOM      5  C13 UNL     1      -3.964  80.026  79.544  0.00  0.00    +0.000 C 
ATOM      6  C14 UNL     1      -5.194  79.654  80.412  0.00  0.00    +0.000 C 
ATOM      7  C15 UNL     1      -6.490  80.209  79.835  0.00  0.00    +0.000 C 
ATOM      8  C16 UNL     1      -6.828  79.636  78.434  0.00  0.00    +0.000 C 
ATOM      9  C17 UNL     1      -5.602  79.691  77.462  0.00  0.00    +0.000 C 
ATOM     10  C18 UNL     1      -5.697  80.889  76.495  0.00  0.00    +0.000 C 
ATOM     11  C19 UNL     1      -6.950  80.804  75.609  0.00  0.00    +0.000 C 
ATOM     12  C20 UNL     1      -8.218  80.435  76.284  0.00  0.00    +0.000 C 
ATOM     13  C21 UNL     1      -8.206  80.226  77.839  0.00  0.00    +0.000 C 
ATOM     14  C22 UNL     1      -9.356  79.285  78.187  0.00  0.00    +0.000 C 
ATOM     15  O3  UNL     1      -9.490  78.877  79.332  0.00  0.00    +0.000 OA
ATOM     16  C23 UNL     1     -10.354  78.863  77.137  0.00  0.00    +0.000 C 
ATOM     17  C24 UNL     1     -10.758  80.071  76.284  0.00  0.00    +0.000 C 
ATOM     18  C25 UNL     1      -9.554  80.718  75.555  0.00  0.00    +0.000 C 
ATOM     19  C26 UNL     1      -8.563  81.614  78.444  0.00  0.00    +0.000 C 
ATOM     20  O5  UNL     1      -7.475  79.490  75.550  0.00  0.00    +0.000 OA
ATOM     21  C27 UNL     1      -3.716  81.558  79.526  0.00  0.00    +0.000 C 
ENDROOT
BRANCH   1  22
ATOM     22  C7  UNL     1      -2.392  79.121  81.538  0.00  0.00    +0.000 C 
ATOM     23  C8  UNL     1      -1.122  79.890  81.961  0.00  0.00    +0.000 C 
BRANCH  22  30
ATOM     24  C1  UNL     1       0.075  75.186  83.822  0.00  0.00    +0.000 C 
ATOM     25  C2  UNL     1      -1.192  75.929  83.502  0.00  0.00    +0.000 C 
ATOM     26  C3  UNL     1      -2.388  75.383  83.789  0.00  0.00    +0.000 C 
ATOM     27  C4  UNL     1      -3.619  76.126  83.457  0.00  0.00    +0.000 C 
ATOM     28  O1  UNL     1      -4.740  75.735  83.873  0.00  0.00    +0.000 OA
ATOM     29  O2  UNL     1      -3.531  77.285  82.684  0.00  0.00    +0.000 OA
ATOM     30  C5  UNL     1      -2.316  77.638  82.020  0.00  0.00    +0.000 C 
ATOM     31  C6  UNL     1      -1.108  77.333  82.938  0.00  0.00    +0.000 C 
BRANCH  26  32
ATOM     32  O6  UNL     1      -2.463  74.124  84.389  0.00  0.00    +0.000 OA
ATOM     33  H38 UNL     1      -3.346  73.732  84.693  0.00  0.00    +0.000 HD
ENDBRANCH  26  32
ENDBRANCH  22  30
ENDBRANCH   1  22
BRANCH  18  34
ATOM     34  O4  UNL     1      -9.738  82.105  75.448  0.00  0.00    +0.000 OA
ATOM     35  H31 UNL     1      -9.259  82.518  76.213  0.00  0.00    +0.000 HD
ENDBRANCH  18  34
TORSDOF 4
ENDMDL
MODEL 9
REMARK VINA RESULT:      -8.2      6.305      9.158
REMARK  Name = .\Withaferin A.pdb
REMARK  8 active torsions:
REMARK  status: ('A' for Active; 'I' for Inactive)
REMARK    1  A    between atoms: C1_1  and  C2_2
REMARK    2  A    between atoms: C3_3  and  O6_33
REMARK    3  A    between atoms: C5_7  and  C7_9
REMARK    4  A    between atoms: C7_9  and  C8_10
REMARK    5  A    between atoms: C7_9  and  C9_11
REMARK    6  A    between atoms: C13_15  and  C27_32
REMARK    7  A    between atoms: C21_23  and  C26_30
REMARK    8  A    between atoms: C25_28  and  O4_29
REMARK                            x       y       z     vdW  Elec       q    Type
REMARK                         _______ _______ _______ _____ _____    ______ ____
ROOT
ATOM      1  C9  UNL     1      -1.663  79.241  81.057  0.00  0.00    +0.000 C 
ATOM      2  C10 UNL     1      -2.630  80.195  80.339  0.00  0.00    +0.000 C 
ATOM      3  C11 UNL     1      -1.785  81.169  79.530  0.00  0.00    +0.000 C 
ATOM      4  C12 UNL     1      -0.316  80.775  79.741  0.00  0.00    +0.000 C 
ATOM      5  C13 UNL     1      -0.297  80.006  81.083  0.00  0.00    +0.000 C 
ATOM      6  C14 UNL     1      -0.233  81.019  82.256  0.00  0.00    +0.000 C 
ATOM      7  C15 UNL     1       0.976  81.939  82.151  0.00  0.00    +0.000 C 
ATOM      8  C16 UNL     1       0.957  82.830  80.881  0.00  0.00    +0.000 C 
ATOM      9  C17 UNL     1       0.648  82.006  79.586  0.00  0.00    +0.000 C 
ATOM     10  C18 UNL     1       1.932  81.689  78.794  0.00  0.00    +0.000 C 
ATOM     11  C19 UNL     1       2.642  82.972  78.332  0.00  0.00    +0.000 C 
ATOM     12  C20 UNL     1       2.769  84.059  79.333  0.00  0.00    +0.000 C 
ATOM     13  C21 UNL     1       2.238  83.804  80.788  0.00  0.00    +0.000 C 
ATOM     14  C22 UNL     1       1.893  85.160  81.396  0.00  0.00    +0.000 C 
ATOM     15  O3  UNL     1       1.351  85.221  82.491  0.00  0.00    +0.000 OA
ATOM     16  C23 UNL     1       2.232  86.441  80.674  0.00  0.00    +0.000 C 
ATOM     17  C24 UNL     1       3.646  86.351  80.085  0.00  0.00    +0.000 C 
ATOM     18  C25 UNL     1       3.798  85.186  79.075  0.00  0.00    +0.000 C 
ATOM     19  C26 UNL     1       3.457  83.254  81.581  0.00  0.00    +0.000 C 
ATOM     20  O5  UNL     1       1.777  84.094  78.333  0.00  0.00    +0.000 OA
ATOM     21  C27 UNL     1       0.902  79.020  81.111  0.00  0.00    +0.000 C 
ENDROOT
BRANCH   1  22
ATOM     22  C7  UNL     1      -2.250  78.716  82.419  0.00  0.00    +0.000 C 
ATOM     23  C8  UNL     1      -1.495  77.477  82.945  0.00  0.00    +0.000 C 
BRANCH  22  30
ATOM     24  C1  UNL     1      -6.415  76.749  80.059  0.00  0.00    +0.000 C 
ATOM     25  C2  UNL     1      -5.656  77.085  81.313  0.00  0.00    +0.000 C 
ATOM     26  C3  UNL     1      -6.254  76.983  82.515  0.00  0.00    +0.000 C 
ATOM     27  C4  UNL     1      -5.492  77.329  83.730  0.00  0.00    +0.000 C 
ATOM     28  O1  UNL     1      -5.953  77.073  84.873  0.00  0.00    +0.000 OA
ATOM     29  O2  UNL     1      -4.240  77.931  83.606  0.00  0.00    +0.000 OA
ATOM     30  C5  UNL     1      -3.783  78.428  82.345  0.00  0.00    +0.000 C 
ATOM     31  C6  UNL     1      -4.188  77.450  81.217  0.00  0.00    +0.000 C 
BRANCH  26  32
ATOM     32  O6  UNL     1      -7.582  76.563  82.609  0.00  0.00    +0.000 OA
ATOM     33  H38 UNL     1      -7.897  75.957  83.356  0.00  0.00    +0.000 HD
ENDBRANCH  26  32
ENDBRANCH  22  30
ENDBRANCH   1  22
BRANCH  18  34
ATOM     34  O4  UNL     1       5.095  84.653  79.140  0.00  0.00    +0.000 OA
ATOM     35  H31 UNL     1       5.010  83.739  79.517  0.00  0.00    +0.000 HD
ENDBRANCH  18  34
TORSDOF 4
ENDMDL
