MODEL 1
REMARK VINA RESULT:      -6.6      0.000      0.000
REMARK  Name = .\Withaferin A.pdb
REMARK  8 active torsions:
REMARK  status: ('A' for Active; 'I' for Inactive)
REMARK    1  A    between atoms: C1_1  and  C2_2
REMARK    2  A    between atoms: C3_3  and  O6_33
REMARK    3  A    between atoms: C5_7  and  C7_9
REMARK    4  A    between atoms: C7_9  and  C8_10
REMARK    5  A    between atoms: C7_9  and  C9_11
REMARK    6  A    between atoms: C13_15  and  C27_32
REMARK    7  A    between atoms: C21_23  and  C26_30
REMARK    8  A    between atoms: C25_28  and  O4_29
REMARK                            x       y       z     vdW  Elec       q    Type
REMARK                         _______ _______ _______ _____ _____    ______ ____
ROOT
ATOM      1  C9  UNL     1       3.041  57.531  59.026  0.00  0.00    +0.000 C 
ATOM      2  C10 UNL     1       2.937  57.650  57.498  0.00  0.00    +0.000 C 
ATOM      3  C11 UNL     1       4.315  58.040  56.981  0.00  0.00    +0.000 C 
ATOM      4  C12 UNL     1       5.247  58.120  58.199  0.00  0.00    +0.000 C 
ATOM      5  C13 UNL     1       4.309  58.367  59.405  0.00  0.00    +0.000 C 
ATOM      6  C14 UNL     1       3.986  59.881  59.504  0.00  0.00    +0.000 C 
ATOM      7  C15 UNL     1       5.246  60.727  59.626  0.00  0.00    +0.000 C 
ATOM      8  C16 UNL     1       6.176  60.619  58.390  0.00  0.00    +0.000 C 
ATOM      9  C17 UNL     1       6.426  59.132  57.968  0.00  0.00    +0.000 C 
ATOM     10  C18 UNL     1       7.789  58.619  58.473  0.00  0.00    +0.000 C 
ATOM     11  C19 UNL     1       8.953  59.437  57.890  0.00  0.00    +0.000 C 
ATOM     12  C20 UNL     1       8.794  60.911  57.888  0.00  0.00    +0.000 C 
ATOM     13  C21 UNL     1       7.501  61.527  58.530  0.00  0.00    +0.000 C 
ATOM     14  C22 UNL     1       7.262  62.883  57.874  0.00  0.00    +0.000 C 
ATOM     15  O3  UNL     1       6.246  63.516  58.125  0.00  0.00    +0.000 OA
ATOM     16  C23 UNL     1       8.278  63.475  56.927  0.00  0.00    +0.000 C 
ATOM     17  C24 UNL     1       9.691  63.283  57.491  0.00  0.00    +0.000 C 
ATOM     18  C25 UNL     1      10.054  61.791  57.698  0.00  0.00    +0.000 C 
ATOM     19  C26 UNL     1       7.872  61.806  60.014  0.00  0.00    +0.000 C 
ATOM     20  O5  UNL     1       8.577  60.148  56.724  0.00  0.00    +0.000 OA
ATOM     21  C27 UNL     1       4.968  57.835  60.706  0.00  0.00    +0.000 C 
ENDROOT
BRANCH   1  22
ATOM     22  C7  UNL     1       1.681  57.872  59.741  0.00  0.00    +0.000 C 
ATOM     23  C8  UNL     1       1.825  57.937  61.276  0.00  0.00    +0.000 C 
BRANCH  22  30
ATOM     24  C1  UNL     1      -0.880  53.399  60.210  0.00  0.00    +0.000 C 
ATOM     25  C2  UNL     1      -0.865  54.879  59.945  0.00  0.00    +0.000 C 
ATOM     26  C3  UNL     1      -1.969  55.496  59.483  0.00  0.00    +0.000 C 
ATOM     27  C4  UNL     1      -1.928  56.946  59.220  0.00  0.00    +0.000 C 
ATOM     28  O1  UNL     1      -2.982  57.585  58.965  0.00  0.00    +0.000 OA
ATOM     29  O2  UNL     1      -0.706  57.618  59.271  0.00  0.00    +0.000 OA
ATOM     30  C5  UNL     1       0.528  56.898  59.343  0.00  0.00    +0.000 C 
ATOM     31  C6  UNL     1       0.372  55.683  60.289  0.00  0.00    +0.000 C 
BRANCH  26  32
ATOM     32  O6  UNL     1      -3.138  54.768  59.248  0.00  0.00    +0.000 OA
ATOM     33  H38 UNL     1      -3.944  55.186  58.801  0.00  0.00    +0.000 HD
ENDBRANCH  26  32
ENDBRANCH  22  30
ENDBRANCH   1  22
BRANCH  18  34
ATOM     34  O4  UNL     1      10.893  61.645  58.814  0.00  0.00    +0.000 OA
ATOM     35  H31 UNL     1      11.728  61.218  58.489  0.00  0.00    +0.000 HD
ENDBRANCH  18  34
TORSDOF 4
ENDMDL
MODEL 2
REMARK VINA RESULT:      -6.4      1.668      9.137
REMARK  Name = .\Withaferin A.pdb
REMARK  8 active torsions:
REMARK  status: ('A' for Active; 'I' for Inactive)
REMARK    1  A    between atoms: C1_1  and  C2_2
REMARK    2  A    between atoms: C3_3  and  O6_33
REMARK    3  A    between atoms: C5_7  and  C7_9
REMARK    4  A    between atoms: C7_9  and  C8_10
REMARK    5  A    between atoms: C7_9  and  C9_11
REMARK    6  A    between atoms: C13_15  and  C27_32
REMARK    7  A    between atoms: C21_23  and  C26_30
REMARK    8  A    between atoms: C25_28  and  O4_29
REMARK                            x       y       z     vdW  Elec       q    Type
REMARK                         _______ _______ _______ _____ _____    ______ ____
ROOT
ATOM      1  C9  UNL     1       6.644  57.675  58.789  0.00  0.00    +0.000 C 
ATOM      2  C10 UNL     1       6.466  58.066  60.265  0.00  0.00    +0.000 C 
ATOM      3  C11 UNL     1       5.163  57.442  60.743  0.00  0.00    +0.000 C 
ATOM      4  C12 UNL     1       4.581  56.653  59.561  0.00  0.00    +0.000 C 
ATOM      5  C13 UNL     1       5.204  57.300  58.302  0.00  0.00    +0.000 C 
ATOM      6  C14 UNL     1       4.387  58.560  57.913  0.00  0.00    +0.000 C 
ATOM      7  C15 UNL     1       2.918  58.238  57.675  0.00  0.00    +0.000 C 
ATOM      8  C16 UNL     1       2.200  57.696  58.938  0.00  0.00    +0.000 C 
ATOM      9  C17 UNL     1       3.014  56.556  59.637  0.00  0.00    +0.000 C 
ATOM     10  C18 UNL     1       2.463  55.161  59.280  0.00  0.00    +0.000 C 
ATOM     11  C19 UNL     1       1.005  54.995  59.737  0.00  0.00    +0.000 C 
ATOM     12  C20 UNL     1       0.088  56.127  59.459  0.00  0.00    +0.000 C 
ATOM     13  C21 UNL     1       0.644  57.367  58.673  0.00  0.00    +0.000 C 
ATOM     14  C22 UNL     1      -0.206  58.574  59.059  0.00  0.00    +0.000 C 
ATOM     15  O3  UNL     1       0.100  59.690  58.662  0.00  0.00    +0.000 OA
ATOM     16  C23 UNL     1      -1.441  58.412  59.910  0.00  0.00    +0.000 C 
ATOM     17  C24 UNL     1      -2.245  57.195  59.437  0.00  0.00    +0.000 C 
ATOM     18  C25 UNL     1      -1.438  55.875  59.522  0.00  0.00    +0.000 C 
ATOM     19  C26 UNL     1       0.349  57.070  57.175  0.00  0.00    +0.000 C 
ATOM     20  O5  UNL     1       0.647  55.931  60.737  0.00  0.00    +0.000 OA
ATOM     21  C27 UNL     1       5.252  56.267  57.144  0.00  0.00    +0.000 C 
ENDROOT
BRANCH   1  22
ATOM     22  C7  UNL     1       7.446  58.762  57.981  0.00  0.00    +0.000 C 
ATOM     23  C8  UNL     1       8.796  58.226  57.458  0.00  0.00    +0.000 C 
BRANCH  22  30
ATOM     24  C1  UNL     1      10.403  62.001  60.728  0.00  0.00    +0.000 C 
ATOM     25  C2  UNL     1       9.288  61.755  59.750  0.00  0.00    +0.000 C 
ATOM     26  C3  UNL     1       8.479  62.764  59.378  0.00  0.00    +0.000 C 
ATOM     27  C4  UNL     1       7.384  62.497  58.426  0.00  0.00    +0.000 C 
ATOM     28  O1  UNL     1       6.728  63.442  57.916  0.00  0.00    +0.000 OA
ATOM     29  O2  UNL     1       7.087  61.179  58.076  0.00  0.00    +0.000 OA
ATOM     30  C5  UNL     1       7.660  60.080  58.789  0.00  0.00    +0.000 C 
ATOM     31  C6  UNL     1       9.141  60.384  59.121  0.00  0.00    +0.000 C 
BRANCH  26  32
ATOM     32  O6  UNL     1       8.669  64.048  59.894  0.00  0.00    +0.000 OA
ATOM     33  H38 UNL     1       8.755  64.214  60.889  0.00  0.00    +0.000 HD
ENDBRANCH  26  32
ENDBRANCH  22  30
ENDBRANCH   1  22
BRANCH  18  34
ATOM     34  O4  UNL     1      -1.808  55.011  58.480  0.00  0.00    +0.000 OA
ATOM     35  H31 UNL     1      -1.007  54.897  57.905  0.00  0.00    +0.000 HD
ENDBRANCH  18  34
TORSDOF 4
ENDMDL
MODEL 3
REMARK VINA RESULT:      -6.4      1.698      2.653
REMARK  Name = .\Withaferin A.pdb
REMARK  8 active torsions:
REMARK  status: ('A' for Active; 'I' for Inactive)
REMARK    1  A    between atoms: C1_1  and  C2_2
REMARK    2  A    between atoms: C3_3  and  O6_33
REMARK    3  A    between atoms: C5_7  and  C7_9
REMARK    4  A    between atoms: C7_9  and  C8_10
REMARK    5  A    between atoms: C7_9  and  C9_11
REMARK    6  A    between atoms: C13_15  and  C27_32
REMARK    7  A    between atoms: C21_23  and  C26_30
REMARK    8  A    between atoms: C25_28  and  O4_29
REMARK                            x       y       z     vdW  Elec       q    Type
REMARK                         _______ _______ _______ _____ _____    ______ ____
ROOT
ATOM      1  C9  UNL     1       2.111  55.229  58.438  0.00  0.00    +0.000 C 
ATOM      2  C10 UNL     1       1.857  55.983  57.123  0.00  0.00    +0.000 C 
ATOM      3  C11 UNL     1       3.153  56.690  56.752  0.00  0.00    +0.000 C 
ATOM      4  C12 UNL     1       4.187  56.331  57.828  0.00  0.00    +0.000 C 
ATOM      5  C13 UNL     1       3.353  55.942  59.072  0.00  0.00    +0.000 C 
ATOM      6  C14 UNL     1       2.943  57.226  59.839  0.00  0.00    +0.000 C 
ATOM      7  C15 UNL     1       4.152  58.058  60.247  0.00  0.00    +0.000 C 
ATOM      8  C16 UNL     1       4.967  58.584  59.037  0.00  0.00    +0.000 C 
ATOM      9  C17 UNL     1       5.272  57.455  57.995  0.00  0.00    +0.000 C 
ATOM     10  C18 UNL     1       6.706  56.912  58.148  0.00  0.00    +0.000 C 
ATOM     11  C19 UNL     1       7.756  58.011  57.915  0.00  0.00    +0.000 C 
ATOM     12  C20 UNL     1       7.503  59.320  58.565  0.00  0.00    +0.000 C 
ATOM     13  C21 UNL     1       6.239  59.469  59.484  0.00  0.00    +0.000 C 
ATOM     14  C22 UNL     1       5.852  60.945  59.499  0.00  0.00    +0.000 C 
ATOM     15  O3  UNL     1       4.826  61.304  60.058  0.00  0.00    +0.000 OA
ATOM     16  C23 UNL     1       6.735  61.983  58.849  0.00  0.00    +0.000 C 
ATOM     17  C24 UNL     1       8.204  61.707  59.192  0.00  0.00    +0.000 C 
ATOM     18  C25 UNL     1       8.680  60.315  58.707  0.00  0.00    +0.000 C 
ATOM     19  C26 UNL     1       6.728  59.118  60.918  0.00  0.00    +0.000 C 
ATOM     20  O5  UNL     1       7.227  59.113  57.200  0.00  0.00    +0.000 OA
ATOM     21  C27 UNL     1       4.163  54.971  59.971  0.00  0.00    +0.000 C 
ENDROOT
BRANCH   1  22
ATOM     22  C7  UNL     1       0.804  55.094  59.306  0.00  0.00    +0.000 C 
ATOM     23  C8  UNL     1       0.448  53.623  59.606  0.00  0.00    +0.000 C 
BRANCH  22  30
ATOM     24  C1  UNL     1      -3.619  55.124  56.618  0.00  0.00    +0.000 C 
ATOM     25  C2  UNL     1      -2.749  55.669  57.718  0.00  0.00    +0.000 C 
ATOM     26  C3  UNL     1      -3.099  56.799  58.361  0.00  0.00    +0.000 C 
ATOM     27  C4  UNL     1      -2.226  57.320  59.429  0.00  0.00    +0.000 C 
ATOM     28  O1  UNL     1      -2.608  58.263  60.171  0.00  0.00    +0.000 OA
ATOM     29  O2  UNL     1      -0.968  56.749  59.625  0.00  0.00    +0.000 OA
ATOM     30  C5  UNL     1      -0.418  55.832  58.676  0.00  0.00    +0.000 C 
ATOM     31  C6  UNL     1      -1.527  54.887  58.156  0.00  0.00    +0.000 C 
BRANCH  26  32
ATOM     32  O6  UNL     1      -4.272  57.473  58.015  0.00  0.00    +0.000 OA
ATOM     33  H38 UNL     1      -4.801  57.230  57.186  0.00  0.00    +0.000 HD
ENDBRANCH  26  32
ENDBRANCH  22  30
ENDBRANCH   1  22
BRANCH  18  34
ATOM     34  O4  UNL     1       9.628  59.788  59.598  0.00  0.00    +0.000 OA
ATOM     35  H31 UNL     1       9.559  60.317  60.435  0.00  0.00    +0.000 HD
ENDBRANCH  18  34
TORSDOF 4
ENDMDL
MODEL 4
REMARK VINA RESULT:      -6.1      2.528      4.187
REMARK  Name = .\Withaferin A.pdb
REMARK  8 active torsions:
REMARK  status: ('A' for Active; 'I' for Inactive)
REMARK    1  A    between atoms: C1_1  and  C2_2
REMARK    2  A    between atoms: C3_3  and  O6_33
REMARK    3  A    between atoms: C5_7  and  C7_9
REMARK    4  A    between atoms: C7_9  and  C8_10
REMARK    5  A    between atoms: C7_9  and  C9_11
REMARK    6  A    between atoms: C13_15  and  C27_32
REMARK    7  A    between atoms: C21_23  and  C26_30
REMARK    8  A    between atoms: C25_28  and  O4_29
REMARK                            x       y       z     vdW  Elec       q    Type
REMARK                         _______ _______ _______ _____ _____    ______ ____
ROOT
ATOM      1  C9  UNL     1      -0.117  56.455  59.461  0.00  0.00    +0.000 C 
ATOM      2  C10 UNL     1       0.358  55.129  58.846  0.00  0.00    +0.000 C 
ATOM      3  C11 UNL     1       1.864  55.049  59.055  0.00  0.00    +0.000 C 
ATOM      4  C12 UNL     1       2.280  56.312  59.824  0.00  0.00    +0.000 C 
ATOM      5  C13 UNL     1       1.169  57.346  59.526  0.00  0.00    +0.000 C 
ATOM      6  C14 UNL     1       1.456  58.033  58.166  0.00  0.00    +0.000 C 
ATOM      7  C15 UNL     1       2.825  58.699  58.140  0.00  0.00    +0.000 C 
ATOM      8  C16 UNL     1       3.995  57.696  58.312  0.00  0.00    +0.000 C 
ATOM      9  C17 UNL     1       3.765  56.721  59.515  0.00  0.00    +0.000 C 
ATOM     10  C18 UNL     1       4.557  57.161  60.763  0.00  0.00    +0.000 C 
ATOM     11  C19 UNL     1       6.071  57.172  60.497  0.00  0.00    +0.000 C 
ATOM     12  C20 UNL     1       6.517  57.778  59.219  0.00  0.00    +0.000 C 
ATOM     13  C21 UNL     1       5.438  58.414  58.274  0.00  0.00    +0.000 C 
ATOM     14  C22 UNL     1       5.991  58.374  56.852  0.00  0.00    +0.000 C 
ATOM     15  O3  UNL     1       5.287  58.712  55.911  0.00  0.00    +0.000 OA
ATOM     16  C23 UNL     1       7.412  57.941  56.586  0.00  0.00    +0.000 C 
ATOM     17  C24 UNL     1       8.353  58.579  57.615  0.00  0.00    +0.000 C 
ATOM     18  C25 UNL     1       8.005  58.180  59.071  0.00  0.00    +0.000 C 
ATOM     19  C26 UNL     1       5.363  59.912  58.684  0.00  0.00    +0.000 C 
ATOM     20  O5  UNL     1       6.424  56.381  59.377  0.00  0.00    +0.000 OA
ATOM     21  C27 UNL     1       1.082  58.377  60.683  0.00  0.00    +0.000 C 
ENDROOT
BRANCH   1  22
ATOM     22  C7  UNL     1      -1.386  57.027  58.727  0.00  0.00    +0.000 C 
ATOM     23  C8  UNL     1      -2.225  57.949  59.638  0.00  0.00    +0.000 C 
BRANCH  22  30
ATOM     24  C1  UNL     1      -5.849  54.430  58.383  0.00  0.00    +0.000 C 
ATOM     25  C2  UNL     1      -4.610  54.997  57.747  0.00  0.00    +0.000 C 
ATOM     26  C3  UNL     1      -4.292  54.675  56.479  0.00  0.00    +0.000 C 
ATOM     27  C4  UNL     1      -3.066  55.234  55.879  0.00  0.00    +0.000 C 
ATOM     28  O1  UNL     1      -2.834  55.106  54.648  0.00  0.00    +0.000 OA
ATOM     29  O2  UNL     1      -2.163  55.928  56.686  0.00  0.00    +0.000 OA
ATOM     30  C5  UNL     1      -2.284  55.909  58.110  0.00  0.00    +0.000 C 
ATOM     31  C6  UNL     1      -3.775  56.002  58.513  0.00  0.00    +0.000 C 
BRANCH  26  32
ATOM     32  O6  UNL     1      -5.110  53.815  55.743  0.00  0.00    +0.000 OA
ATOM     33  H38 UNL     1      -4.746  53.259  54.979  0.00  0.00    +0.000 HD
ENDBRANCH  26  32
ENDBRANCH  22  30
ENDBRANCH   1  22
BRANCH  18  34
ATOM     34  O4  UNL     1       8.288  59.240  59.947  0.00  0.00    +0.000 OA
ATOM     35  H31 UNL     1       8.276  58.863  60.865  0.00  0.00    +0.000 HD
ENDBRANCH  18  34
TORSDOF 4
ENDMDL
MODEL 5
REMARK VINA RESULT:      -6.0      2.324      9.896
REMARK  Name = .\Withaferin A.pdb
REMARK  8 active torsions:
REMARK  status: ('A' for Active; 'I' for Inactive)
REMARK    1  A    between atoms: C1_1  and  C2_2
REMARK    2  A    between atoms: C3_3  and  O6_33
REMARK    3  A    between atoms: C5_7  and  C7_9
REMARK    4  A    between atoms: C7_9  and  C8_10
REMARK    5  A    between atoms: C7_9  and  C9_11
REMARK    6  A    between atoms: C13_15  and  C27_32
REMARK    7  A    between atoms: C21_23  and  C26_30
REMARK    8  A    between atoms: C25_28  and  O4_29
REMARK                            x       y       z     vdW  Elec       q    Type
REMARK                         _______ _______ _______ _____ _____    ______ ____
ROOT
ATOM      1  C9  UNL     1       3.618  58.058  59.727  0.00  0.00    +0.000 C 
ATOM      2  C10 UNL     1       3.451  58.615  58.305  0.00  0.00    +0.000 C 
ATOM      3  C11 UNL     1       1.977  58.495  57.944  0.00  0.00    +0.000 C 
ATOM      4  C12 UNL     1       1.262  57.896  59.164  0.00  0.00    +0.000 C 
ATOM      5  C13 UNL     1       2.365  57.145  59.946  0.00  0.00    +0.000 C 
ATOM      6  C14 UNL     1       2.569  55.738  59.327  0.00  0.00    +0.000 C 
ATOM      7  C15 UNL     1       1.279  54.928  59.313  0.00  0.00    +0.000 C 
ATOM      8  C16 UNL     1       0.166  55.567  58.443  0.00  0.00    +0.000 C 
ATOM      9  C17 UNL     1      -0.022  57.091  58.751  0.00  0.00    +0.000 C 
ATOM     10  C18 UNL     1      -1.231  57.339  59.675  0.00  0.00    +0.000 C 
ATOM     11  C19 UNL     1      -2.543  56.861  59.032  0.00  0.00    +0.000 C 
ATOM     12  C20 UNL     1      -2.514  55.534  58.371  0.00  0.00    +0.000 C 
ATOM     13  C21 UNL     1      -1.190  54.695  58.431  0.00  0.00    +0.000 C 
ATOM     14  C22 UNL     1      -1.183  53.758  57.227  0.00  0.00    +0.000 C 
ATOM     15  O3  UNL     1      -0.197  53.075  56.987  0.00  0.00    +0.000 OA
ATOM     16  C23 UNL     1      -2.391  53.641  56.331  0.00  0.00    +0.000 C 
ATOM     17  C24 UNL     1      -3.667  53.575  57.179  0.00  0.00    +0.000 C 
ATOM     18  C25 UNL     1      -3.859  54.830  58.067  0.00  0.00    +0.000 C 
ATOM     19  C26 UNL     1      -1.326  53.799  59.695  0.00  0.00    +0.000 C 
ATOM     20  O5  UNL     1      -2.433  56.726  57.627  0.00  0.00    +0.000 OA
ATOM     21  C27 UNL     1       1.984  57.062  61.449  0.00  0.00    +0.000 C 
ENDROOT
BRANCH   1  22
ATOM     22  C7  UNL     1       5.045  57.434  59.956  0.00  0.00    +0.000 C 
ATOM     23  C8  UNL     1       5.022  56.272  60.971  0.00  0.00    +0.000 C 
BRANCH  22  30
ATOM     24  C1  UNL     1       8.379  61.230  58.833  0.00  0.00    +0.000 C 
ATOM     25  C2  UNL     1       7.385  60.591  59.763  0.00  0.00    +0.000 C 
ATOM     26  C3  UNL     1       7.244  61.048  61.022  0.00  0.00    +0.000 C 
ATOM     27  C4  UNL     1       6.270  60.399  61.920  0.00  0.00    +0.000 C 
ATOM     28  O1  UNL     1       5.981  60.910  63.033  0.00  0.00    +0.000 OA
ATOM     29  O2  UNL     1       5.654  59.213  61.519  0.00  0.00    +0.000 OA
ATOM     30  C5  UNL     1       6.111  58.497  60.370  0.00  0.00    +0.000 C 
ATOM     31  C6  UNL     1       6.481  59.491  59.244  0.00  0.00    +0.000 C 
BRANCH  26  32
ATOM     32  O6  UNL     1       8.017  62.120  61.474  0.00  0.00    +0.000 OA
ATOM     33  H38 UNL     1       8.584  62.671  60.841  0.00  0.00    +0.000 HD
ENDBRANCH  26  32
ENDBRANCH  22  30
ENDBRANCH   1  22
BRANCH  18  34
ATOM     34  O4  UNL     1      -4.482  54.479  59.276  0.00  0.00    +0.000 OA
ATOM     35  H31 UNL     1      -4.735  55.328  59.724  0.00  0.00    +0.000 HD
ENDBRANCH  18  34
TORSDOF 4
ENDMDL
MODEL 6
REMARK VINA RESULT:      -5.9      2.998     10.365
REMARK  Name = .\Withaferin A.pdb
REMARK  8 active torsions:
REMARK  status: ('A' for Active; 'I' for Inactive)
REMARK    1  A    between atoms: C1_1  and  C2_2
REMARK    2  A    between atoms: C3_3  and  O6_33
REMARK    3  A    between atoms: C5_7  and  C7_9
REMARK    4  A    between atoms: C7_9  and  C8_10
REMARK    5  A    between atoms: C7_9  and  C9_11
REMARK    6  A    between atoms: C13_15  and  C27_32
REMARK    7  A    between atoms: C21_23  and  C26_30
REMARK    8  A    between atoms: C25_28  and  O4_29
REMARK                            x       y       z     vdW  Elec       q    Type
REMARK                         _______ _______ _______ _____ _____    ______ ____
ROOT
ATOM      1  C9  UNL     1       1.324  57.354  59.975  0.00  0.00    +0.000 C 
ATOM      2  C10 UNL     1       0.837  58.663  59.334  0.00  0.00    +0.000 C 
ATOM      3  C11 UNL     1      -0.598  58.436  58.878  0.00  0.00    +0.000 C 
ATOM      4  C12 UNL     1      -0.976  57.002  59.278  0.00  0.00    +0.000 C 
ATOM      5  C13 UNL     1       0.371  56.252  59.400  0.00  0.00    +0.000 C 
ATOM      6  C14 UNL     1       0.827  55.781  57.994  0.00  0.00    +0.000 C 
ATOM      7  C15 UNL     1      -0.215  54.898  57.322  0.00  0.00    +0.000 C 
ATOM      8  C16 UNL     1      -1.557  55.631  57.059  0.00  0.00    +0.000 C 
ATOM      9  C17 UNL     1      -2.068  56.398  58.324  0.00  0.00    +0.000 C 
ATOM     10  C18 UNL     1      -3.166  55.608  59.064  0.00  0.00    +0.000 C 
ATOM     11  C19 UNL     1      -4.396  55.376  58.171  0.00  0.00    +0.000 C 
ATOM     12  C20 UNL     1      -4.133  54.941  56.778  0.00  0.00    +0.000 C 
ATOM     13  C21 UNL     1      -2.648  54.687  56.339  0.00  0.00    +0.000 C 
ATOM     14  C22 UNL     1      -2.575  54.883  54.828  0.00  0.00    +0.000 C 
ATOM     15  O3  UNL     1      -1.493  54.850  54.257  0.00  0.00    +0.000 OA
ATOM     16  C23 UNL     1      -3.827  55.097  54.014  0.00  0.00    +0.000 C 
ATOM     17  C24 UNL     1      -4.923  54.128  54.475  0.00  0.00    +0.000 C 
ATOM     18  C25 UNL     1      -5.294  54.314  55.968  0.00  0.00    +0.000 C 
ATOM     19  C26 UNL     1      -2.392  53.177  56.608  0.00  0.00    +0.000 C 
ATOM     20  O5  UNL     1      -4.445  56.280  57.082  0.00  0.00    +0.000 OA
ATOM     21  C27 UNL     1       0.227  55.062  60.385  0.00  0.00    +0.000 C 
ENDROOT
BRANCH   1  22
ATOM     22  C7  UNL     1       2.877  57.157  59.813  0.00  0.00    +0.000 C 
ATOM     23  C8  UNL     1       3.615  57.183  61.168  0.00  0.00    +0.000 C 
BRANCH  22  30
ATOM     24  C1  UNL     1       5.465  61.526  58.813  0.00  0.00    +0.000 C 
ATOM     25  C2  UNL     1       5.125  60.099  58.482  0.00  0.00    +0.000 C 
ATOM     26  C3  UNL     1       5.529  59.559  57.317  0.00  0.00    +0.000 C 
ATOM     27  C4  UNL     1       5.175  58.161  57.009  0.00  0.00    +0.000 C 
ATOM     28  O1  UNL     1       5.685  57.569  56.022  0.00  0.00    +0.000 OA
ATOM     29  O2  UNL     1       4.274  57.485  57.833  0.00  0.00    +0.000 OA
ATOM     30  C5  UNL     1       3.517  58.182  58.825  0.00  0.00    +0.000 C 
ATOM     31  C6  UNL     1       4.404  59.250  59.509  0.00  0.00    +0.000 C 
BRANCH  26  32
ATOM     32  O6  UNL     1       6.269  60.318  56.407  0.00  0.00    +0.000 OA
ATOM     33  H38 UNL     1       6.917  59.887  55.759  0.00  0.00    +0.000 HD
ENDBRANCH  26  32
ENDBRANCH  22  30
ENDBRANCH   1  22
BRANCH  18  34
ATOM     34  O4  UNL     1      -5.645  53.081  56.539  0.00  0.00    +0.000 OA
ATOM     35  H31 UNL     1      -6.637  53.055  56.577  0.00  0.00    +0.000 HD
ENDBRANCH  18  34
TORSDOF 4
ENDMDL
MODEL 7
REMARK VINA RESULT:      -5.9      1.907      9.365
REMARK  Name = .\Withaferin A.pdb
REMARK  8 active torsions:
REMARK  status: ('A' for Active; 'I' for Inactive)
REMARK    1  A    between atoms: C1_1  and  C2_2
REMARK    2  A    between atoms: C3_3  and  O6_33
REMARK    3  A    between atoms: C5_7  and  C7_9
REMARK    4  A    between atoms: C7_9  and  C8_10
REMARK    5  A    between atoms: C7_9  and  C9_11
REMARK    6  A    between atoms: C13_15  and  C27_32
REMARK    7  A    between atoms: C21_23  and  C26_30
REMARK    8  A    between atoms: C25_28  and  O4_29
REMARK                            x       y       z     vdW  Elec       q    Type
REMARK                         _______ _______ _______ _____ _____    ______ ____
ROOT
ATOM      1  C9  UNL     1       7.299  60.142  59.580  0.00  0.00    +0.000 C 
ATOM      2  C10 UNL     1       6.456  61.335  59.102  0.00  0.00    +0.000 C 
ATOM      3  C11 UNL     1       5.004  61.024  59.436  0.00  0.00    +0.000 C 
ATOM      4  C12 UNL     1       4.986  59.661  60.142  0.00  0.00    +0.000 C 
ATOM      5  C13 UNL     1       6.283  58.955  59.683  0.00  0.00    +0.000 C 
ATOM      6  C14 UNL     1       6.046  58.287  58.304  0.00  0.00    +0.000 C 
ATOM      7  C15 UNL     1       4.887  57.300  58.339  0.00  0.00    +0.000 C 
ATOM      8  C16 UNL     1       3.527  57.968  58.675  0.00  0.00    +0.000 C 
ATOM      9  C17 UNL     1       3.625  58.908  59.924  0.00  0.00    +0.000 C 
ATOM     10  C18 UNL     1       3.088  58.221  61.196  0.00  0.00    +0.000 C 
ATOM     11  C19 UNL     1       1.604  57.843  61.051  0.00  0.00    +0.000 C 
ATOM     12  C20 UNL     1       1.201  57.210  59.773  0.00  0.00    +0.000 C 
ATOM     13  C21 UNL     1       2.308  56.913  58.701  0.00  0.00    +0.000 C 
ATOM     14  C22 UNL     1       1.630  56.884  57.334  0.00  0.00    +0.000 C 
ATOM     15  O3  UNL     1       2.303  56.781  56.318  0.00  0.00    +0.000 OA
ATOM     16  C23 UNL     1       0.128  56.958  57.214  0.00  0.00    +0.000 C 
ATOM     17  C24 UNL     1      -0.526  56.054  58.267  0.00  0.00    +0.000 C 
ATOM     18  C25 UNL     1      -0.149  56.455  59.715  0.00  0.00    +0.000 C 
ATOM     19  C26 UNL     1       2.788  55.463  58.995  0.00  0.00    +0.000 C 
ATOM     20  O5  UNL     1       0.963  58.575  60.023  0.00  0.00    +0.000 OA
ATOM     21  C27 UNL     1       6.731  57.922  60.752  0.00  0.00    +0.000 C 
ENDROOT
BRANCH   1  22
ATOM     22  C7  UNL     1       8.594  59.944  58.708  0.00  0.00    +0.000 C 
ATOM     23  C8  UNL     1       9.884  60.002  59.553  0.00  0.00    +0.000 C 
BRANCH  22  30
ATOM     24  C1  UNL     1      10.429  64.241  56.481  0.00  0.00    +0.000 C 
ATOM     25  C2  UNL     1       9.942  62.821  56.387  0.00  0.00    +0.000 C 
ATOM     26  C3  UNL     1       9.703  62.265  55.184  0.00  0.00    +0.000 C 
ATOM     27  C4  UNL     1       9.216  60.875  55.116  0.00  0.00    +0.000 C 
ATOM     28  O1  UNL     1       9.158  60.265  54.017  0.00  0.00    +0.000 OA
ATOM     29  O2  UNL     1       8.830  60.226  56.290  0.00  0.00    +0.000 OA
ATOM     30  C5  UNL     1       8.679  60.948  57.515  0.00  0.00    +0.000 C 
ATOM     31  C6  UNL     1       9.809  61.996  57.651  0.00  0.00    +0.000 C 
BRANCH  26  32
ATOM     32  O6  UNL     1       9.908  63.000  54.014  0.00  0.00    +0.000 OA
ATOM     33  H38 UNL     1       9.570  62.676  53.116  0.00  0.00    +0.000 HD
ENDBRANCH  26  32
ENDBRANCH  22  30
ENDBRANCH   1  22
BRANCH  18  34
ATOM     34  O4  UNL     1      -0.078  55.315  60.532  0.00  0.00    +0.000 OA
ATOM     35  H31 UNL     1      -0.999  54.948  60.591  0.00  0.00    +0.000 HD
ENDBRANCH  18  34
TORSDOF 4
ENDMDL
MODEL 8
REMARK VINA RESULT:      -5.8      1.756      2.421
REMARK  Name = .\Withaferin A.pdb
REMARK  8 active torsions:
REMARK  status: ('A' for Active; 'I' for Inactive)
REMARK    1  A    between atoms: C1_1  and  C2_2
REMARK    2  A    between atoms: C3_3  and  O6_33
REMARK    3  A    between atoms: C5_7  and  C7_9
REMARK    4  A    between atoms: C7_9  and  C8_10
REMARK    5  A    between atoms: C7_9  and  C9_11
REMARK    6  A    between atoms: C13_15  and  C27_32
REMARK    7  A    between atoms: C21_23  and  C26_30
REMARK    8  A    between atoms: C25_28  and  O4_29
REMARK                            x       y       z     vdW  Elec       q    Type
REMARK                         _______ _______ _______ _____ _____    ______ ____
ROOT
ATOM      1  C9  UNL     1       1.463  56.803  59.304  0.00  0.00    +0.000 C 
ATOM      2  C10 UNL     1       1.987  55.967  58.125  0.00  0.00    +0.000 C 
ATOM      3  C11 UNL     1       3.505  55.926  58.241  0.00  0.00    +0.000 C 
ATOM      4  C12 UNL     1       3.881  56.710  59.507  0.00  0.00    +0.000 C 
ATOM      5  C13 UNL     1       2.690  57.664  59.756  0.00  0.00    +0.000 C 
ATOM      6  C14 UNL     1       2.852  58.931  58.877  0.00  0.00    +0.000 C 
ATOM      7  C15 UNL     1       4.171  59.645  59.142  0.00  0.00    +0.000 C 
ATOM      8  C16 UNL     1       5.412  58.782  58.795  0.00  0.00    +0.000 C 
ATOM      9  C17 UNL     1       5.316  57.340  59.399  0.00  0.00    +0.000 C 
ATOM     10  C18 UNL     1       6.148  57.208  60.690  0.00  0.00    +0.000 C 
ATOM     11  C19 UNL     1       7.641  57.471  60.431  0.00  0.00    +0.000 C 
ATOM     12  C20 UNL     1       7.972  58.641  59.583  0.00  0.00    +0.000 C 
ATOM     13  C21 UNL     1       6.801  59.553  59.073  0.00  0.00    +0.000 C 
ATOM     14  C22 UNL     1       7.272  60.233  57.791  0.00  0.00    +0.000 C 
ATOM     15  O3  UNL     1       6.494  60.913  57.136  0.00  0.00    +0.000 OA
ATOM     16  C23 UNL     1       8.700  60.098  57.323  0.00  0.00    +0.000 C 
ATOM     17  C24 UNL     1       9.656  60.255  58.512  0.00  0.00    +0.000 C 
ATOM     18  C25 UNL     1       9.419  59.190  59.613  0.00  0.00    +0.000 C 
ATOM     19  C26 UNL     1       6.652  60.670  60.144  0.00  0.00    +0.000 C 
ATOM     20  O5  UNL     1       7.979  57.333  59.063  0.00  0.00    +0.000 OA
ATOM     21  C27 UNL     1       2.603  58.020  61.265  0.00  0.00    +0.000 C 
ENDROOT
BRANCH   1  22
ATOM     22  C7  UNL     1       0.119  57.543  58.953  0.00  0.00    +0.000 C 
ATOM     23  C8  UNL     1      -0.373  58.443  60.107  0.00  0.00    +0.000 C 
BRANCH  22  30
ATOM     24  C1  UNL     1      -2.524  53.116  59.402  0.00  0.00    +0.000 C 
ATOM     25  C2  UNL     1      -2.471  54.584  59.080  0.00  0.00    +0.000 C 
ATOM     26  C3  UNL     1      -3.529  55.191  58.510  0.00  0.00    +0.000 C 
ATOM     27  C4  UNL     1      -3.450  56.629  58.193  0.00  0.00    +0.000 C 
ATOM     28  O1  UNL     1      -4.474  57.267  57.833  0.00  0.00    +0.000 OA
ATOM     29  O2  UNL     1      -2.227  57.291  58.311  0.00  0.00    +0.000 OA
ATOM     30  C5  UNL     1      -1.012  56.564  58.507  0.00  0.00    +0.000 C 
ATOM     31  C6  UNL     1      -1.254  55.390  59.486  0.00  0.00    +0.000 C 
BRANCH  26  32
ATOM     32  O6  UNL     1      -4.684  54.464  58.215  0.00  0.00    +0.000 OA
ATOM     33  H38 UNL     1      -4.941  54.237  57.262  0.00  0.00    +0.000 HD
ENDBRANCH  26  32
ENDBRANCH  22  30
ENDBRANCH   1  22
BRANCH  18  34
ATOM     34  O4  UNL     1       9.682  59.735  60.880  0.00  0.00    +0.000 OA
ATOM     35  H31 UNL     1       8.860  60.214  61.162  0.00  0.00    +0.000 HD
ENDBRANCH  18  34
TORSDOF 4
ENDMDL
MODEL 9
REMARK VINA RESULT:      -5.8      2.762      9.120
REMARK  Name = .\Withaferin A.pdb
REMARK  8 active torsions:
REMARK  status: ('A' for Active; 'I' for Inactive)
REMARK    1  A    between atoms: C1_1  and  C2_2
REMARK    2  A    between atoms: C3_3  and  O6_33
REMARK    3  A    between atoms: C5_7  and  C7_9
REMARK    4  A    between atoms: C7_9  and  C8_10
REMARK    5  A    between atoms: C7_9  and  C9_11
REMARK    6  A    between atoms: C13_15  and  C27_32
REMARK    7  A    between atoms: C21_23  and  C26_30
REMARK    8  A    between atoms: C25_28  and  O4_29
REMARK                            x       y       z     vdW  Elec       q    Type
REMARK                         _______ _______ _______ _____ _____    ______ ____
ROOT
ATOM      1  C9  UNL     1       5.719  58.483  58.891  0.00  0.00    +0.000 C 
ATOM      2  C10 UNL     1       5.874  57.554  60.105  0.00  0.00    +0.000 C 
ATOM      3  C11 UNL     1       5.017  56.323  59.843  0.00  0.00    +0.000 C 
ATOM      4  C12 UNL     1       4.379  56.505  58.458  0.00  0.00    +0.000 C 
ATOM      5  C13 UNL     1       4.382  58.032  58.213  0.00  0.00    +0.000 C 
ATOM      6  C14 UNL     1       3.148  58.667  58.907  0.00  0.00    +0.000 C 
ATOM      7  C15 UNL     1       1.842  58.052  58.424  0.00  0.00    +0.000 C 
ATOM      8  C16 UNL     1       1.722  56.539  58.748  0.00  0.00    +0.000 C 
ATOM      9  C17 UNL     1       3.009  55.745  58.341  0.00  0.00    +0.000 C 
ATOM     10  C18 UNL     1       2.822  55.009  56.999  0.00  0.00    +0.000 C 
ATOM     11  C19 UNL     1       1.682  53.980  57.072  0.00  0.00    +0.000 C 
ATOM     12  C20 UNL     1       0.429  54.423  57.730  0.00  0.00    +0.000 C 
ATOM     13  C21 UNL     1       0.331  55.904  58.239  0.00  0.00    +0.000 C 
ATOM     14  C22 UNL     1      -0.689  55.935  59.372  0.00  0.00    +0.000 C 
ATOM     15  O3  UNL     1      -0.863  56.963  60.013  0.00  0.00    +0.000 OA
ATOM     16  C23 UNL     1      -1.513  54.715  59.706  0.00  0.00    +0.000 C 
ATOM     17  C24 UNL     1      -2.016  54.056  58.417  0.00  0.00    +0.000 C 
ATOM     18  C25 UNL     1      -0.863  53.605  57.486  0.00  0.00    +0.000 C 
ATOM     19  C26 UNL     1      -0.286  56.705  57.057  0.00  0.00    +0.000 C 
ATOM     20  O5  UNL     1       1.369  53.621  58.405  0.00  0.00    +0.000 OA
ATOM     21  C27 UNL     1       4.396  58.324  56.689  0.00  0.00    +0.000 C 
ENDROOT
BRANCH   1  22
ATOM     22  C7  UNL     1       5.885  59.999  59.280  0.00  0.00    +0.000 C 
ATOM     23  C8  UNL     1       6.678  60.793  58.221  0.00  0.00    +0.000 C 
BRANCH  22  30
ATOM     24  C1  UNL     1       9.412  62.067  62.453  0.00  0.00    +0.000 C 
ATOM     25  C2  UNL     1       8.017  61.571  62.190  0.00  0.00    +0.000 C 
ATOM     26  C3  UNL     1       7.147  61.424  63.206  0.00  0.00    +0.000 C 
ATOM     27  C4  UNL     1       5.787  60.925  62.925  0.00  0.00    +0.000 C 
ATOM     28  O1  UNL     1       4.895  60.949  63.813  0.00  0.00    +0.000 OA
ATOM     29  O2  UNL     1       5.487  60.436  61.653  0.00  0.00    +0.000 OA
ATOM     30  C5  UNL     1       6.518  60.195  60.693  0.00  0.00    +0.000 C 
ATOM     31  C6  UNL     1       7.574  61.324  60.762  0.00  0.00    +0.000 C 
BRANCH  26  32
ATOM     32  O6  UNL     1       7.529  61.734  64.513  0.00  0.00    +0.000 OA
ATOM     33  H38 UNL     1       8.322  61.286  64.955  0.00  0.00    +0.000 HD
ENDBRANCH  26  32
ENDBRANCH  22  30
ENDBRANCH   1  22
BRANCH  18  34
ATOM     34  O4  UNL     1      -1.245  53.732  56.142  0.00  0.00    +0.000 OA
ATOM     35  H31 UNL     1      -0.548  53.275  55.602  0.00  0.00    +0.000 HD
ENDBRANCH  18  34
TORSDOF 4
ENDMDL
