MODEL 1
REMARK VINA RESULT:       5.5      0.000      0.000
REMARK  Name = .\Withaferin A.pdb
REMARK  8 active torsions:
REMARK  status: ('A' for Active; 'I' for Inactive)
REMARK    1  A    between atoms: C1_1  and  C2_2
REMARK    2  A    between atoms: C3_3  and  O6_33
REMARK    3  A    between atoms: C5_7  and  C7_9
REMARK    4  A    between atoms: C7_9  and  C8_10
REMARK    5  A    between atoms: C7_9  and  C9_11
REMARK    6  A    between atoms: C13_15  and  C27_32
REMARK    7  A    between atoms: C21_23  and  C26_30
REMARK    8  A    between atoms: C25_28  and  O4_29
REMARK                            x       y       z     vdW  Elec       q    Type
REMARK                         _______ _______ _______ _____ _____    ______ ____
ROOT
ATOM      1  C9  UNL     1       4.404  97.179 139.236  0.00  0.00    +0.000 C 
ATOM      2  C10 UNL     1       4.240  97.841 140.613  0.00  0.00    +0.000 C 
ATOM      3  C11 UNL     1       4.217  96.727 141.650  0.00  0.00    +0.000 C 
ATOM      4  C12 UNL     1       4.401  95.404 140.894  0.00  0.00    +0.000 C 
ATOM      5  C13 UNL     1       3.934  95.700 139.449  0.00  0.00    +0.000 C 
ATOM      6  C14 UNL     1       2.390  95.575 139.371  0.00  0.00    +0.000 C 
ATOM      7  C15 UNL     1       1.905  94.203 139.816  0.00  0.00    +0.000 C 
ATOM      8  C16 UNL     1       2.235  93.890 141.299  0.00  0.00    +0.000 C 
ATOM      9  C17 UNL     1       3.729  94.201 141.649  0.00  0.00    +0.000 C 
ATOM     10  C18 UNL     1       4.589  92.921 141.660  0.00  0.00    +0.000 C 
ATOM     11  C19 UNL     1       4.096  91.917 142.715  0.00  0.00    +0.000 C 
ATOM     12  C20 UNL     1       2.631  91.696 142.789  0.00  0.00    +0.000 C 
ATOM     13  C21 UNL     1       1.708  92.438 141.759  0.00  0.00    +0.000 C 
ATOM     14  C22 UNL     1       0.327  92.574 142.394  0.00  0.00    +0.000 C 
ATOM     15  O3  UNL     1      -0.546  93.220 141.831  0.00  0.00    +0.000 OA
ATOM     16  C23 UNL     1       0.009  91.900 143.706  0.00  0.00    +0.000 C 
ATOM     17  C24 UNL     1       0.572  90.473 143.711  0.00  0.00    +0.000 C 
ATOM     18  C25 UNL     1       2.110  90.438 143.525  0.00  0.00    +0.000 C 
ATOM     19  C26 UNL     1       1.557  91.458 140.561  0.00  0.00    +0.000 C 
ATOM     20  O5  UNL     1       3.295  92.533 143.707  0.00  0.00    +0.000 OA
ATOM     21  C27 UNL     1       4.639  94.736 138.457  0.00  0.00    +0.000 C 
ENDROOT
BRANCH   1  22
ATOM     22  C7  UNL     1       3.729  98.019 138.090  0.00  0.00    +0.000 C 
ATOM     23  C8  UNL     1       2.566  98.891 138.609  0.00  0.00    +0.000 C 
BRANCH  22  30
ATOM     24  C1  UNL     1       0.402  94.724 135.886  0.00  0.00    +0.000 C 
ATOM     25  C2  UNL     1       1.369  95.871 135.788  0.00  0.00    +0.000 C 
ATOM     26  C3  UNL     1       1.763  96.324 134.583  0.00  0.00    +0.000 C 
ATOM     27  C4  UNL     1       2.722  97.443 134.511  0.00  0.00    +0.000 C 
ATOM     28  O1  UNL     1       2.970  98.010 133.415  0.00  0.00    +0.000 OA
ATOM     29  O2  UNL     1       3.346  97.885 135.678  0.00  0.00    +0.000 OA
ATOM     30  C5  UNL     1       3.255  97.137 136.892  0.00  0.00    +0.000 C 
ATOM     31  C6  UNL     1       1.825  96.569 137.053  0.00  0.00    +0.000 C 
BRANCH  26  32
ATOM     32  O6  UNL     1       1.276  95.735 133.414  0.00  0.00    +0.000 OA
ATOM     33  H38 UNL     1       0.402  95.224 133.400  0.00  0.00    +0.000 HD
ENDBRANCH  26  32
ENDBRANCH  22  30
ENDBRANCH   1  22
BRANCH  18  34
ATOM     34  O4  UNL     1       2.486  89.291 142.807  0.00  0.00    +0.000 OA
ATOM     35  H31 UNL     1       3.315  88.948 143.231  0.00  0.00    +0.000 HD
ENDBRANCH  18  34
TORSDOF 4
ENDMDL
