MODEL 1
REMARK VINA RESULT:       0.8      0.000      0.000
REMARK  Name = .\Withaferin A.pdb
REMARK  8 active torsions:
REMARK  status: ('A' for Active; 'I' for Inactive)
REMARK    1  A    between atoms: C1_1  and  C2_2
REMARK    2  A    between atoms: C3_3  and  O6_33
REMARK    3  A    between atoms: C5_7  and  C7_9
REMARK    4  A    between atoms: C7_9  and  C8_10
REMARK    5  A    between atoms: C7_9  and  C9_11
REMARK    6  A    between atoms: C13_15  and  C27_32
REMARK    7  A    between atoms: C21_23  and  C26_30
REMARK    8  A    between atoms: C25_28  and  O4_29
REMARK                            x       y       z     vdW  Elec       q    Type
REMARK                         _______ _______ _______ _____ _____    ______ ____
ROOT
ATOM      1  C9  UNL     1     -19.644  73.560  91.196  0.00  0.00    +0.000 C 
ATOM      2  C10 UNL     1     -18.525  73.663  92.244  0.00  0.00    +0.000 C 
ATOM      3  C11 UNL     1     -18.929  72.786  93.422  0.00  0.00    +0.000 C 
ATOM      4  C12 UNL     1     -20.272  72.137  93.060  0.00  0.00    +0.000 C 
ATOM      5  C13 UNL     1     -20.897  73.072  91.998  0.00  0.00    +0.000 C 
ATOM      6  C14 UNL     1     -21.614  74.250  92.708  0.00  0.00    +0.000 C 
ATOM      7  C15 UNL     1     -22.678  73.767  93.684  0.00  0.00    +0.000 C 
ATOM      8  C16 UNL     1     -22.099  72.919  94.847  0.00  0.00    +0.000 C 
ATOM      9  C17 UNL     1     -21.124  71.805  94.338  0.00  0.00    +0.000 C 
ATOM     10  C18 UNL     1     -21.815  70.428  94.280  0.00  0.00    +0.000 C 
ATOM     11  C19 UNL     1     -22.299  69.979  95.668  0.00  0.00    +0.000 C 
ATOM     12  C20 UNL     1     -22.990  70.999  96.493  0.00  0.00    +0.000 C 
ATOM     13  C21 UNL     1     -23.235  72.421  95.877  0.00  0.00    +0.000 C 
ATOM     14  C22 UNL     1     -23.345  73.411  97.033  0.00  0.00    +0.000 C 
ATOM     15  O3  UNL     1     -23.426  74.611  96.808  0.00  0.00    +0.000 OA
ATOM     16  C23 UNL     1     -23.379  72.930  98.463  0.00  0.00    +0.000 C 
ATOM     17  C24 UNL     1     -24.300  71.710  98.582  0.00  0.00    +0.000 C 
ATOM     18  C25 UNL     1     -23.839  70.524  97.698  0.00  0.00    +0.000 C 
ATOM     19  C26 UNL     1     -24.640  72.347  95.215  0.00  0.00    +0.000 C 
ATOM     20  O5  UNL     1     -21.639  70.669  96.714  0.00  0.00    +0.000 OA
ATOM     21  C27 UNL     1     -21.869  72.271  91.092  0.00  0.00    +0.000 C 
ENDROOT
BRANCH   1  22
ATOM     22  C7  UNL     1     -19.773  74.873  90.336  0.00  0.00    +0.000 C 
ATOM     23  C8  UNL     1     -18.505  75.749  90.410  0.00  0.00    +0.000 C 
BRANCH  22  30
ATOM     24  C1  UNL     1     -24.889  75.651  90.341  0.00  0.00    +0.000 C 
ATOM     25  C2  UNL     1     -23.544  75.779  91.000  0.00  0.00    +0.000 C 
ATOM     26  C3  UNL     1     -23.398  76.538  92.102  0.00  0.00    +0.000 C 
ATOM     27  C4  UNL     1     -22.067  76.657  92.725  0.00  0.00    +0.000 C 
ATOM     28  O1  UNL     1     -21.928  77.203  93.851  0.00  0.00    +0.000 OA
ATOM     29  O2  UNL     1     -20.952  76.142  92.062  0.00  0.00    +0.000 OA
ATOM     30  C5  UNL     1     -21.037  75.713  90.701  0.00  0.00    +0.000 C 
ATOM     31  C6  UNL     1     -22.376  74.974  90.466  0.00  0.00    +0.000 C 
BRANCH  26  32
ATOM     32  O6  UNL     1     -24.495  77.212  92.644  0.00  0.00    +0.000 OA
ATOM     33  H38 UNL     1     -25.044  76.814  93.396  0.00  0.00    +0.000 HD
ENDBRANCH  26  32
ENDBRANCH  22  30
ENDBRANCH   1  22
BRANCH  18  34
ATOM     34  O4  UNL     1     -24.950  69.807  97.228  0.00  0.00    +0.000 OA
ATOM     35  H31 UNL     1     -25.126  69.087  97.888  0.00  0.00    +0.000 HD
ENDBRANCH  18  34
TORSDOF 4
ENDMDL
MODEL 2
REMARK VINA RESULT:       0.9      2.086      3.725
REMARK  Name = .\Withaferin A.pdb
REMARK  8 active torsions:
REMARK  status: ('A' for Active; 'I' for Inactive)
REMARK    1  A    between atoms: C1_1  and  C2_2
REMARK    2  A    between atoms: C3_3  and  O6_33
REMARK    3  A    between atoms: C5_7  and  C7_9
REMARK    4  A    between atoms: C7_9  and  C8_10
REMARK    5  A    between atoms: C7_9  and  C9_11
REMARK    6  A    between atoms: C13_15  and  C27_32
REMARK    7  A    between atoms: C21_23  and  C26_30
REMARK    8  A    between atoms: C25_28  and  O4_29
REMARK                            x       y       z     vdW  Elec       q    Type
REMARK                         _______ _______ _______ _____ _____    ______ ____
ROOT
ATOM      1  C9  UNL     1     -22.220  71.015  92.135  0.00  0.00    +0.000 C 
ATOM      2  C10 UNL     1     -21.094  70.520  93.057  0.00  0.00    +0.000 C 
ATOM      3  C11 UNL     1     -21.411  71.014  94.461  0.00  0.00    +0.000 C 
ATOM      4  C12 UNL     1     -22.742  71.775  94.381  0.00  0.00    +0.000 C 
ATOM      5  C13 UNL     1     -22.862  72.218  92.904  0.00  0.00    +0.000 C 
ATOM      6  C14 UNL     1     -22.057  73.526  92.691  0.00  0.00    +0.000 C 
ATOM      7  C15 UNL     1     -22.521  74.640  93.621  0.00  0.00    +0.000 C 
ATOM      8  C16 UNL     1     -22.314  74.308  95.122  0.00  0.00    +0.000 C 
ATOM      9  C17 UNL     1     -22.849  72.883  95.490  0.00  0.00    +0.000 C 
ATOM     10  C18 UNL     1     -24.235  72.952  96.162  0.00  0.00    +0.000 C 
ATOM     11  C19 UNL     1     -24.188  73.751  97.475  0.00  0.00    +0.000 C 
ATOM     12  C20 UNL     1     -23.433  75.027  97.450  0.00  0.00    +0.000 C 
ATOM     13  C21 UNL     1     -22.802  75.498  96.093  0.00  0.00    +0.000 C 
ATOM     14  C22 UNL     1     -21.618  76.403  96.425  0.00  0.00    +0.000 C 
ATOM     15  O3  UNL     1     -20.889  76.811  95.532  0.00  0.00    +0.000 OA
ATOM     16  C23 UNL     1     -21.342  76.825  97.847  0.00  0.00    +0.000 C 
ATOM     17  C24 UNL     1     -22.654  77.216  98.540  0.00  0.00    +0.000 C 
ATOM     18  C25 UNL     1     -23.675  76.052  98.585  0.00  0.00    +0.000 C 
ATOM     19  C26 UNL     1     -23.881  76.399  95.428  0.00  0.00    +0.000 C 
ATOM     20  O5  UNL     1     -22.874  73.854  97.993  0.00  0.00    +0.000 OA
ATOM     21  C27 UNL     1     -24.357  72.396  92.524  0.00  0.00    +0.000 C 
ENDROOT
BRANCH   1  22
ATOM     22  C7  UNL     1     -21.718  71.252  90.662  0.00  0.00    +0.000 C 
ATOM     23  C8  UNL     1     -20.449  70.437  90.336  0.00  0.00    +0.000 C 
BRANCH  22  30
ATOM     24  C1  UNL     1     -23.372  76.146  90.340  0.00  0.00    +0.000 C 
ATOM     25  C2  UNL     1     -22.282  75.146  90.611  0.00  0.00    +0.000 C 
ATOM     26  C3  UNL     1     -21.008  75.556  90.759  0.00  0.00    +0.000 C 
ATOM     27  C4  UNL     1     -19.954  74.557  91.014  0.00  0.00    +0.000 C 
ATOM     28  O1  UNL     1     -18.791  74.914  91.339  0.00  0.00    +0.000 OA
ATOM     29  O2  UNL     1     -20.257  73.199  90.906  0.00  0.00    +0.000 OA
ATOM     30  C5  UNL     1     -21.494  72.763  90.336  0.00  0.00    +0.000 C 
ATOM     31  C6  UNL     1     -22.643  73.687  90.804  0.00  0.00    +0.000 C 
BRANCH  26  32
ATOM     32  O6  UNL     1     -20.688  76.913  90.667  0.00  0.00    +0.000 OA
ATOM     33  H38 UNL     1     -19.921  77.240  90.093  0.00  0.00    +0.000 HD
ENDBRANCH  26  32
ENDBRANCH  22  30
ENDBRANCH   1  22
BRANCH  18  34
ATOM     34  O4  UNL     1     -24.984  76.550  98.487  0.00  0.00    +0.000 OA
ATOM     35  H31 UNL     1     -25.586  75.763  98.422  0.00  0.00    +0.000 HD
ENDBRANCH  18  34
TORSDOF 4
ENDMDL
