MODEL 1
REMARK VINA RESULT:       0.9      0.000      0.000
REMARK  Name = .\Withaferin A.pdb
REMARK  8 active torsions:
REMARK  status: ('A' for Active; 'I' for Inactive)
REMARK    1  A    between atoms: C1_1  and  C2_2
REMARK    2  A    between atoms: C3_3  and  O6_33
REMARK    3  A    between atoms: C5_7  and  C7_9
REMARK    4  A    between atoms: C7_9  and  C8_10
REMARK    5  A    between atoms: C7_9  and  C9_11
REMARK    6  A    between atoms: C13_15  and  C27_32
REMARK    7  A    between atoms: C21_23  and  C26_30
REMARK    8  A    between atoms: C25_28  and  O4_29
REMARK                            x       y       z     vdW  Elec       q    Type
REMARK                         _______ _______ _______ _____ _____    ______ ____
ROOT
ATOM      1  C9  UNL     1       8.106  70.083  76.531  0.00  0.00    +0.000 C 
ATOM      2  C10 UNL     1       7.040  70.933  77.239  0.00  0.00    +0.000 C 
ATOM      3  C11 UNL     1       7.003  70.491  78.695  0.00  0.00    +0.000 C 
ATOM      4  C12 UNL     1       8.071  69.400  78.861  0.00  0.00    +0.000 C 
ATOM      5  C13 UNL     1       8.276  68.820  77.442  0.00  0.00    +0.000 C 
ATOM      6  C14 UNL     1       7.182  67.759  77.155  0.00  0.00    +0.000 C 
ATOM      7  C15 UNL     1       7.183  66.644  78.191  0.00  0.00    +0.000 C 
ATOM      8  C16 UNL     1       6.862  67.141  79.625  0.00  0.00    +0.000 C 
ATOM      9  C17 UNL     1       7.709  68.399  80.017  0.00  0.00    +0.000 C 
ATOM     10  C18 UNL     1       8.911  68.020  80.905  0.00  0.00    +0.000 C 
ATOM     11  C19 UNL     1       8.458  67.374  82.225  0.00  0.00    +0.000 C 
ATOM     12  C20 UNL     1       7.394  66.347  82.130  0.00  0.00    +0.000 C 
ATOM     13  C21 UNL     1       6.859  65.948  80.709  0.00  0.00    +0.000 C 
ATOM     14  C22 UNL     1       5.438  65.421  80.883  0.00  0.00    +0.000 C 
ATOM     15  O3  UNL     1       4.761  65.148  79.902  0.00  0.00    +0.000 OA
ATOM     16  C23 UNL     1       4.855  65.205  82.258  0.00  0.00    +0.000 C 
ATOM     17  C24 UNL     1       5.895  64.540  83.168  0.00  0.00    +0.000 C 
ATOM     18  C25 UNL     1       7.180  65.391  83.330  0.00  0.00    +0.000 C 
ATOM     19  C26 UNL     1       7.734  64.743  80.263  0.00  0.00    +0.000 C 
ATOM     20  O5  UNL     1       7.106  67.667  82.528  0.00  0.00    +0.000 OA
ATOM     21  C27 UNL     1       9.703  68.222  77.315  0.00  0.00    +0.000 C 
ENDROOT
BRANCH   1  22
ATOM     22  C7  UNL     1       7.776  69.866  75.008  0.00  0.00    +0.000 C 
ATOM     23  C8  UNL     1       6.258  69.870  74.730  0.00  0.00    +0.000 C 
BRANCH  22  30
ATOM     24  C1  UNL     1      11.869  66.820  74.141  0.00  0.00    +0.000 C 
ATOM     25  C2  UNL     1      10.403  66.996  74.423  0.00  0.00    +0.000 C 
ATOM     26  C3  UNL     1       9.567  65.944  74.343  0.00  0.00    +0.000 C 
ATOM     27  C4  UNL     1       8.131  66.142  74.613  0.00  0.00    +0.000 C 
ATOM     28  O1  UNL     1       7.355  65.157  74.728  0.00  0.00    +0.000 OA
ATOM     29  O2  UNL     1       7.633  67.437  74.758  0.00  0.00    +0.000 OA
ATOM     30  C5  UNL     1       8.432  68.575  74.425  0.00  0.00    +0.000 C 
ATOM     31  C6  UNL     1       9.891  68.345  74.885  0.00  0.00    +0.000 C 
BRANCH  26  32
ATOM     32  O6  UNL     1      10.054  64.680  74.001  0.00  0.00    +0.000 OA
ATOM     33  H38 UNL     1      11.032  64.526  73.789  0.00  0.00    +0.000 HD
ENDBRANCH  26  32
ENDBRANCH  22  30
ENDBRANCH   1  22
BRANCH  18  34
ATOM     34  O4  UNL     1       8.301  64.557  83.464  0.00  0.00    +0.000 OA
ATOM     35  H31 UNL     1       8.694  64.748  84.355  0.00  0.00    +0.000 HD
ENDBRANCH  18  34
TORSDOF 4
ENDMDL
MODEL 2
REMARK VINA RESULT:       1.6      2.870      6.856
REMARK  Name = .\Withaferin A.pdb
REMARK  8 active torsions:
REMARK  status: ('A' for Active; 'I' for Inactive)
REMARK    1  A    between atoms: C1_1  and  C2_2
REMARK    2  A    between atoms: C3_3  and  O6_33
REMARK    3  A    between atoms: C5_7  and  C7_9
REMARK    4  A    between atoms: C7_9  and  C8_10
REMARK    5  A    between atoms: C7_9  and  C9_11
REMARK    6  A    between atoms: C13_15  and  C27_32
REMARK    7  A    between atoms: C21_23  and  C26_30
REMARK    8  A    between atoms: C25_28  and  O4_29
REMARK                            x       y       z     vdW  Elec       q    Type
REMARK                         _______ _______ _______ _____ _____    ______ ____
ROOT
ATOM      1  C9  UNL     1      10.039  66.133  77.218  0.00  0.00    +0.000 C 
ATOM      2  C10 UNL     1       8.692  65.595  77.728  0.00  0.00    +0.000 C 
ATOM      3  C11 UNL     1       7.643  66.660  77.439  0.00  0.00    +0.000 C 
ATOM      4  C12 UNL     1       8.360  67.817  76.728  0.00  0.00    +0.000 C 
ATOM      5  C13 UNL     1       9.844  67.685  77.142  0.00  0.00    +0.000 C 
ATOM      6  C14 UNL     1      10.054  68.354  78.525  0.00  0.00    +0.000 C 
ATOM      7  C15 UNL     1       9.630  69.817  78.523  0.00  0.00    +0.000 C 
ATOM      8  C16 UNL     1       8.119  70.013  78.232  0.00  0.00    +0.000 C 
ATOM      9  C17 UNL     1       7.646  69.193  76.986  0.00  0.00    +0.000 C 
ATOM     10  C18 UNL     1       7.540  70.079  75.729  0.00  0.00    +0.000 C 
ATOM     11  C19 UNL     1       6.515  71.210  75.918  0.00  0.00    +0.000 C 
ATOM     12  C20 UNL     1       6.566  71.943  77.206  0.00  0.00    +0.000 C 
ATOM     13  C21 UNL     1       7.684  71.566  78.241  0.00  0.00    +0.000 C 
ATOM     14  C22 UNL     1       7.174  71.945  79.628  0.00  0.00    +0.000 C 
ATOM     15  O3  UNL     1       7.821  71.646  80.622  0.00  0.00    +0.000 OA
ATOM     16  C23 UNL     1       5.884  72.709  79.797  0.00  0.00    +0.000 C 
ATOM     17  C24 UNL     1       5.806  73.838  78.762  0.00  0.00    +0.000 C 
ATOM     18  C25 UNL     1       5.858  73.316  77.304  0.00  0.00    +0.000 C 
ATOM     19  C26 UNL     1       8.874  72.515  77.926  0.00  0.00    +0.000 C 
ATOM     20  O5  UNL     1       5.607  70.939  76.970  0.00  0.00    +0.000 OA
ATOM     21  C27 UNL     1      10.755  68.315  76.055  0.00  0.00    +0.000 C 
ENDROOT
BRANCH   1  22
ATOM     22  C7  UNL     1      11.253  65.572  78.047  0.00  0.00    +0.000 C 
ATOM     23  C8  UNL     1      12.080  64.540  77.252  0.00  0.00    +0.000 C 
BRANCH  22  30
ATOM     24  C1  UNL     1      12.118  64.549  83.046  0.00  0.00    +0.000 C 
ATOM     25  C2  UNL     1      11.182  64.904  81.924  0.00  0.00    +0.000 C 
ATOM     26  C3  UNL     1       9.850  64.886  82.121  0.00  0.00    +0.000 C 
ATOM     27  C4  UNL     1       8.951  65.227  81.003  0.00  0.00    +0.000 C 
ATOM     28  O1  UNL     1       7.719  65.400  81.195  0.00  0.00    +0.000 OA
ATOM     29  O2  UNL     1       9.480  65.374  79.719  0.00  0.00    +0.000 OA
ATOM     30  C5  UNL     1      10.822  64.979  79.425  0.00  0.00    +0.000 C 
ATOM     31  C6  UNL     1      11.753  65.367  80.599  0.00  0.00    +0.000 C 
BRANCH  26  32
ATOM     32  O6  UNL     1       9.326  64.542  83.369  0.00  0.00    +0.000 OA
ATOM     33  H38 UNL     1       8.476  64.963  83.723  0.00  0.00    +0.000 HD
ENDBRANCH  26  32
ENDBRANCH  22  30
ENDBRANCH   1  22
BRANCH  18  34
ATOM     34  O4  UNL     1       6.521  74.240  76.480  0.00  0.00    +0.000 OA
ATOM     35  H31 UNL     1       7.419  74.383  76.878  0.00  0.00    +0.000 HD
ENDBRANCH  18  34
TORSDOF 4
ENDMDL
MODEL 3
REMARK VINA RESULT:       2.3      3.006      6.018
REMARK  Name = .\Withaferin A.pdb
REMARK  8 active torsions:
REMARK  status: ('A' for Active; 'I' for Inactive)
REMARK    1  A    between atoms: C1_1  and  C2_2
REMARK    2  A    between atoms: C3_3  and  O6_33
REMARK    3  A    between atoms: C5_7  and  C7_9
REMARK    4  A    between atoms: C7_9  and  C8_10
REMARK    5  A    between atoms: C7_9  and  C9_11
REMARK    6  A    between atoms: C13_15  and  C27_32
REMARK    7  A    between atoms: C21_23  and  C26_30
REMARK    8  A    between atoms: C25_28  and  O4_29
REMARK                            x       y       z     vdW  Elec       q    Type
REMARK                         _______ _______ _______ _____ _____    ______ ____
ROOT
ATOM      1  C9  UNL     1      10.645  66.922  79.997  0.00  0.00    +0.000 C 
ATOM      2  C10 UNL     1      11.722  67.590  79.127  0.00  0.00    +0.000 C 
ATOM      3  C11 UNL     1      11.336  69.056  78.978  0.00  0.00    +0.000 C 
ATOM      4  C12 UNL     1      10.048  69.267  79.787  0.00  0.00    +0.000 C 
ATOM      5  C13 UNL     1       9.400  67.865  79.882  0.00  0.00    +0.000 C 
ATOM      6  C14 UNL     1       8.589  67.584  78.591  0.00  0.00    +0.000 C 
ATOM      7  C15 UNL     1       7.527  68.646  78.341  0.00  0.00    +0.000 C 
ATOM      8  C16 UNL     1       8.120  70.061  78.115  0.00  0.00    +0.000 C 
ATOM      9  C17 UNL     1       9.179  70.439  79.205  0.00  0.00    +0.000 C 
ATOM     10  C18 UNL     1       8.577  71.358  80.287  0.00  0.00    +0.000 C 
ATOM     11  C19 UNL     1       8.078  72.684  79.689  0.00  0.00    +0.000 C 
ATOM     12  C20 UNL     1       7.298  72.594  78.431  0.00  0.00    +0.000 C 
ATOM     13  C21 UNL     1       6.985  71.173  77.843  0.00  0.00    +0.000 C 
ATOM     14  C22 UNL     1       6.776  71.333  76.340  0.00  0.00    +0.000 C 
ATOM     15  O3  UNL     1       6.628  70.346  75.633  0.00  0.00    +0.000 OA
ATOM     16  C23 UNL     1       6.727  72.702  75.707  0.00  0.00    +0.000 C 
ATOM     17  C24 UNL     1       5.880  73.646  76.569  0.00  0.00    +0.000 C 
ATOM     18  C25 UNL     1       6.443  73.811  78.003  0.00  0.00    +0.000 C 
ATOM     19  C26 UNL     1       5.609  70.772  78.447  0.00  0.00    +0.000 C 
ATOM     20  O5  UNL     1       8.659  72.955  78.427  0.00  0.00    +0.000 OA
ATOM     21  C27 UNL     1       8.509  67.779  81.150  0.00  0.00    +0.000 C 
ENDROOT
BRANCH   1  22
ATOM     22  C7  UNL     1      10.463  65.399  79.648  0.00  0.00    +0.000 C 
ATOM     23  C8  UNL     1      11.652  64.540  80.129  0.00  0.00    +0.000 C 
BRANCH  22  30
ATOM     24  C1  UNL     1       7.278  64.540  75.660  0.00  0.00    +0.000 C 
ATOM     25  C2  UNL     1       8.528  65.150  76.231  0.00  0.00    +0.000 C 
ATOM     26  C3  UNL     1       9.449  65.697  75.415  0.00  0.00    +0.000 C 
ATOM     27  C4  UNL     1      10.672  66.280  75.997  0.00  0.00    +0.000 C 
ATOM     28  O1  UNL     1      11.463  66.958  75.290  0.00  0.00    +0.000 OA
ATOM     29  O2  UNL     1      10.945  66.088  77.352  0.00  0.00    +0.000 OA
ATOM     30  C5  UNL     1      10.193  65.154  78.130  0.00  0.00    +0.000 C 
ATOM     31  C6  UNL     1       8.699  65.225  77.735  0.00  0.00    +0.000 C 
BRANCH  26  32
ATOM     32  O6  UNL     1       9.251  65.705  74.033  0.00  0.00    +0.000 OA
ATOM     33  H38 UNL     1      10.007  65.519  73.386  0.00  0.00    +0.000 HD
ENDBRANCH  26  32
ENDBRANCH  22  30
ENDBRANCH   1  22
BRANCH  18  34
ATOM     34  O4  UNL     1       5.394  73.986  78.919  0.00  0.00    +0.000 OA
ATOM     35  H31 UNL     1       4.923  73.114  78.985  0.00  0.00    +0.000 HD
ENDBRANCH  18  34
TORSDOF 4
ENDMDL
