MODEL 1
REMARK VINA RESULT:       2.6      0.000      0.000
REMARK  Name = .\Withaferin A.pdb
REMARK  8 active torsions:
REMARK  status: ('A' for Active; 'I' for Inactive)
REMARK    1  A    between atoms: C1_1  and  C2_2
REMARK    2  A    between atoms: C3_3  and  O6_33
REMARK    3  A    between atoms: C5_7  and  C7_9
REMARK    4  A    between atoms: C7_9  and  C8_10
REMARK    5  A    between atoms: C7_9  and  C9_11
REMARK    6  A    between atoms: C13_15  and  C27_32
REMARK    7  A    between atoms: C21_23  and  C26_30
REMARK    8  A    between atoms: C25_28  and  O4_29
REMARK                            x       y       z     vdW  Elec       q    Type
REMARK                         _______ _______ _______ _____ _____    ______ ____
ROOT
ATOM      1  C9  UNL     1     -19.148  64.246   6.444  0.00  0.00    +0.000 C 
ATOM      2  C10 UNL     1     -20.541  63.612   6.592  0.00  0.00    +0.000 C 
ATOM      3  C11 UNL     1     -20.335  62.127   6.855  0.00  0.00    +0.000 C 
ATOM      4  C12 UNL     1     -18.820  61.883   6.896  0.00  0.00    +0.000 C 
ATOM      5  C13 UNL     1     -18.203  63.049   6.088  0.00  0.00    +0.000 C 
ATOM      6  C14 UNL     1     -18.255  62.712   4.575  0.00  0.00    +0.000 C 
ATOM      7  C15 UNL     1     -17.540  61.406   4.256  0.00  0.00    +0.000 C 
ATOM      8  C16 UNL     1     -18.185  60.173   4.941  0.00  0.00    +0.000 C 
ATOM      9  C17 UNL     1     -18.452  60.417   6.465  0.00  0.00    +0.000 C 
ATOM     10  C18 UNL     1     -17.364  59.769   7.344  0.00  0.00    +0.000 C 
ATOM     11  C19 UNL     1     -17.314  58.244   7.151  0.00  0.00    +0.000 C 
ATOM     12  C20 UNL     1     -17.377  57.749   5.754  0.00  0.00    +0.000 C 
ATOM     13  C21 UNL     1     -17.422  58.798   4.588  0.00  0.00    +0.000 C 
ATOM     14  C22 UNL     1     -18.100  58.130   3.395  0.00  0.00    +0.000 C 
ATOM     15  O3  UNL     1     -18.356  58.782   2.392  0.00  0.00    +0.000 OA
ATOM     16  C23 UNL     1     -18.443  56.661   3.421  0.00  0.00    +0.000 C 
ATOM     17  C24 UNL     1     -17.276  55.863   4.017  0.00  0.00    +0.000 C 
ATOM     18  C25 UNL     1     -16.936  56.293   5.466  0.00  0.00    +0.000 C 
ATOM     19  C26 UNL     1     -15.938  59.032   4.187  0.00  0.00    +0.000 C 
ATOM     20  O5  UNL     1     -18.511  57.736   6.590  0.00  0.00    +0.000 OA
ATOM     21  C27 UNL     1     -16.751  63.316   6.567  0.00  0.00    +0.000 C 
ENDROOT
BRANCH   1  22
ATOM     22  C7  UNL     1     -19.164  65.495   5.487  0.00  0.00    +0.000 C 
ATOM     23  C8  UNL     1     -20.486  66.286   5.577  0.00  0.00    +0.000 C 
BRANCH  22  30
ATOM     24  C1  UNL     1     -20.589  64.805   0.560  0.00  0.00    +0.000 C 
ATOM     25  C2  UNL     1     -19.568  65.218   1.583  0.00  0.00    +0.000 C 
ATOM     26  C3  UNL     1     -18.297  65.464   1.211  0.00  0.00    +0.000 C 
ATOM     27  C4  UNL     1     -17.310  65.857   2.234  0.00  0.00    +0.000 C 
ATOM     28  O1  UNL     1     -16.168  66.270   1.902  0.00  0.00    +0.000 OA
ATOM     29  O2  UNL     1     -17.656  65.784   3.584  0.00  0.00    +0.000 OA
ATOM     30  C5  UNL     1     -18.852  65.124   4.003  0.00  0.00    +0.000 C 
ATOM     31  C6  UNL     1     -20.001  65.443   3.018  0.00  0.00    +0.000 C 
BRANCH  26  32
ATOM     32  O6  UNL     1     -17.917  65.340  -0.127  0.00  0.00    +0.000 OA
ATOM     33  H38 UNL     1     -17.545  64.474  -0.496  0.00  0.00    +0.000 HD
ENDBRANCH  26  32
ENDBRANCH  22  30
ENDBRANCH   1  22
BRANCH  18  34
ATOM     34  O4  UNL     1     -15.557  56.173   5.697  0.00  0.00    +0.000 OA
ATOM     35  H31 UNL     1     -15.099  56.512   4.884  0.00  0.00    +0.000 HD
ENDBRANCH  18  34
TORSDOF 4
ENDMDL
MODEL 2
REMARK VINA RESULT:       2.8      1.796      2.437
REMARK  Name = .\Withaferin A.pdb
REMARK  8 active torsions:
REMARK  status: ('A' for Active; 'I' for Inactive)
REMARK    1  A    between atoms: C1_1  and  C2_2
REMARK    2  A    between atoms: C3_3  and  O6_33
REMARK    3  A    between atoms: C5_7  and  C7_9
REMARK    4  A    between atoms: C7_9  and  C8_10
REMARK    5  A    between atoms: C7_9  and  C9_11
REMARK    6  A    between atoms: C13_15  and  C27_32
REMARK    7  A    between atoms: C21_23  and  C26_30
REMARK    8  A    between atoms: C25_28  and  O4_29
REMARK                            x       y       z     vdW  Elec       q    Type
REMARK                         _______ _______ _______ _____ _____    ______ ____
ROOT
ATOM      1  C9  UNL     1     -17.702  65.430   5.457  0.00  0.00    +0.000 C 
ATOM      2  C10 UNL     1     -17.885  65.256   6.973  0.00  0.00    +0.000 C 
ATOM      3  C11 UNL     1     -17.309  63.897   7.344  0.00  0.00    +0.000 C 
ATOM      4  C12 UNL     1     -16.753  63.276   6.055  0.00  0.00    +0.000 C 
ATOM      5  C13 UNL     1     -17.523  63.973   4.909  0.00  0.00    +0.000 C 
ATOM      6  C14 UNL     1     -18.890  63.269   4.704  0.00  0.00    +0.000 C 
ATOM      7  C15 UNL     1     -18.729  61.784   4.411  0.00  0.00    +0.000 C 
ATOM      8  C16 UNL     1     -18.070  61.000   5.576  0.00  0.00    +0.000 C 
ATOM      9  C17 UNL     1     -16.776  61.706   6.105  0.00  0.00    +0.000 C 
ATOM     10  C18 UNL     1     -15.499  61.050   5.542  0.00  0.00    +0.000 C 
ATOM     11  C19 UNL     1     -15.390  59.574   5.959  0.00  0.00    +0.000 C 
ATOM     12  C20 UNL     1     -16.623  58.758   5.845  0.00  0.00    +0.000 C 
ATOM     13  C21 UNL     1     -17.913  59.428   5.254  0.00  0.00    +0.000 C 
ATOM     14  C22 UNL     1     -19.118  58.672   5.807  0.00  0.00    +0.000 C 
ATOM     15  O3  UNL     1     -20.251  59.074   5.581  0.00  0.00    +0.000 OA
ATOM     16  C23 UNL     1     -18.936  57.411   6.616  0.00  0.00    +0.000 C 
ATOM     17  C24 UNL     1     -17.872  56.520   5.963  0.00  0.00    +0.000 C 
ATOM     18  C25 UNL     1     -16.492  57.216   5.859  0.00  0.00    +0.000 C 
ATOM     19  C26 UNL     1     -17.865  59.139   3.727  0.00  0.00    +0.000 C 
ATOM     20  O5  UNL     1     -16.196  59.274   7.084  0.00  0.00    +0.000 OA
ATOM     21  C27 UNL     1     -16.671  63.960   3.612  0.00  0.00    +0.000 C 
ENDROOT
BRANCH   1  22
ATOM     22  C7  UNL     1     -18.824  66.333   4.824  0.00  0.00    +0.000 C 
ATOM     23  C8  UNL     1     -20.168  66.212   5.574  0.00  0.00    +0.000 C 
BRANCH  22  30
ATOM     24  C1  UNL     1     -17.076  66.117  -0.043  0.00  0.00    +0.000 C 
ATOM     25  C2  UNL     1     -17.968  65.603   1.053  0.00  0.00    +0.000 C 
ATOM     26  C3  UNL     1     -18.933  64.706   0.777  0.00  0.00    +0.000 C 
ATOM     27  C4  UNL     1     -19.803  64.224   1.866  0.00  0.00    +0.000 C 
ATOM     28  O1  UNL     1     -20.588  63.257   1.684  0.00  0.00    +0.000 OA
ATOM     29  O2  UNL     1     -19.741  64.841   3.116  0.00  0.00    +0.000 OA
ATOM     30  C5  UNL     1     -19.027  66.066   3.299  0.00  0.00    +0.000 C 
ATOM     31  C6  UNL     1     -17.712  66.035   2.483  0.00  0.00    +0.000 C 
BRANCH  26  32
ATOM     32  O6  UNL     1     -19.112  64.243  -0.529  0.00  0.00    +0.000 OA
ATOM     33  H38 UNL     1     -19.700  63.444  -0.733  0.00  0.00    +0.000 HD
ENDBRANCH  26  32
ENDBRANCH  22  30
ENDBRANCH   1  22
BRANCH  18  34
ATOM     34  O4  UNL     1     -15.823  56.797   4.698  0.00  0.00    +0.000 OA
ATOM     35  H31 UNL     1     -15.826  57.567   4.072  0.00  0.00    +0.000 HD
ENDBRANCH  18  34
TORSDOF 4
ENDMDL
