MODEL 1
REMARK VINA RESULT:      -5.3      0.000      0.000
REMARK  Name = .\Withaferin A.pdb
REMARK  8 active torsions:
REMARK  status: ('A' for Active; 'I' for Inactive)
REMARK    1  A    between atoms: C1_1  and  C2_2
REMARK    2  A    between atoms: C3_3  and  O6_33
REMARK    3  A    between atoms: C5_7  and  C7_9
REMARK    4  A    between atoms: C7_9  and  C8_10
REMARK    5  A    between atoms: C7_9  and  C9_11
REMARK    6  A    between atoms: C13_15  and  C27_32
REMARK    7  A    between atoms: C21_23  and  C26_30
REMARK    8  A    between atoms: C25_28  and  O4_29
REMARK                            x       y       z     vdW  Elec       q    Type
REMARK                         _______ _______ _______ _____ _____    ______ ____
ROOT
ATOM      1  C9  UNL     1       5.323  63.107  42.513  0.00  0.00    +0.000 C 
ATOM      2  C10 UNL     1       5.386  62.757  44.008  0.00  0.00    +0.000 C 
ATOM      3  C11 UNL     1       4.786  63.929  44.772  0.00  0.00    +0.000 C 
ATOM      4  C12 UNL     1       4.336  64.963  43.729  0.00  0.00    +0.000 C 
ATOM      5  C13 UNL     1       5.193  64.667  42.476  0.00  0.00    +0.000 C 
ATOM      6  C14 UNL     1       6.574  65.358  42.621  0.00  0.00    +0.000 C 
ATOM      7  C15 UNL     1       6.441  66.860  42.834  0.00  0.00    +0.000 C 
ATOM      8  C16 UNL     1       5.694  67.228  44.142  0.00  0.00    +0.000 C 
ATOM      9  C17 UNL     1       4.360  66.424  44.306  0.00  0.00    +0.000 C 
ATOM     10  C18 UNL     1       3.134  67.267  43.903  0.00  0.00    +0.000 C 
ATOM     11  C19 UNL     1       2.996  68.521  44.784  0.00  0.00    +0.000 C 
ATOM     12  C20 UNL     1       4.237  69.291  45.042  0.00  0.00    +0.000 C 
ATOM     13  C21 UNL     1       5.568  68.820  44.358  0.00  0.00    +0.000 C 
ATOM     14  C22 UNL     1       6.727  69.311  45.220  0.00  0.00    +0.000 C 
ATOM     15  O3  UNL     1       7.873  68.974  44.956  0.00  0.00    +0.000 OA
ATOM     16  C23 UNL     1       6.485  70.232  46.390  0.00  0.00    +0.000 C 
ATOM     17  C24 UNL     1       5.480  71.322  45.999  0.00  0.00    +0.000 C 
ATOM     18  C25 UNL     1       4.110  70.743  45.565  0.00  0.00    +0.000 C 
ATOM     19  C26 UNL     1       5.642  69.605  43.017  0.00  0.00    +0.000 C 
ATOM     20  O5  UNL     1       3.711  68.402  46.000  0.00  0.00    +0.000 OA
ATOM     21  C27 UNL     1       4.446  65.140  41.200  0.00  0.00    +0.000 C 
ENDROOT
BRANCH   1  22
ATOM     22  C7  UNL     1       6.490  62.435  41.697  0.00  0.00    +0.000 C 
ATOM     23  C8  UNL     1       7.873  63.003  42.076  0.00  0.00    +0.000 C 
BRANCH  22  30
ATOM     24  C1  UNL     1       3.475  62.225  37.496  0.00  0.00    +0.000 C 
ATOM     25  C2  UNL     1       4.652  62.796  38.237  0.00  0.00    +0.000 C 
ATOM     26  C3  UNL     1       5.533  63.590  37.600  0.00  0.00    +0.000 C 
ATOM     27  C4  UNL     1       6.686  64.130  38.344  0.00  0.00    +0.000 C 
ATOM     28  O1  UNL     1       7.423  65.016  37.837  0.00  0.00    +0.000 OA
ATOM     29  O2  UNL     1       6.950  63.663  39.633  0.00  0.00    +0.000 OA
ATOM     30  C5  UNL     1       6.273  62.516  40.153  0.00  0.00    +0.000 C 
ATOM     31  C6  UNL     1       4.786  62.545  39.725  0.00  0.00    +0.000 C 
BRANCH  26  32
ATOM     32  O6  UNL     1       5.361  63.892  36.247  0.00  0.00    +0.000 OA
ATOM     33  H38 UNL     1       5.248  63.165  35.550  0.00  0.00    +0.000 HD
ENDBRANCH  26  32
ENDBRANCH  22  30
ENDBRANCH   1  22
BRANCH  18  34
ATOM     34  O4  UNL     1       3.537  71.546  44.566  0.00  0.00    +0.000 OA
ATOM     35  H31 UNL     1       2.709  71.935  44.953  0.00  0.00    +0.000 HD
ENDBRANCH  18  34
TORSDOF 4
ENDMDL
MODEL 2
REMARK VINA RESULT:      -5.0      1.649      2.950
REMARK  Name = .\Withaferin A.pdb
REMARK  8 active torsions:
REMARK  status: ('A' for Active; 'I' for Inactive)
REMARK    1  A    between atoms: C1_1  and  C2_2
REMARK    2  A    between atoms: C3_3  and  O6_33
REMARK    3  A    between atoms: C5_7  and  C7_9
REMARK    4  A    between atoms: C7_9  and  C8_10
REMARK    5  A    between atoms: C7_9  and  C9_11
REMARK    6  A    between atoms: C13_15  and  C27_32
REMARK    7  A    between atoms: C21_23  and  C26_30
REMARK    8  A    between atoms: C25_28  and  O4_29
REMARK                            x       y       z     vdW  Elec       q    Type
REMARK                         _______ _______ _______ _____ _____    ______ ____
ROOT
ATOM      1  C9  UNL     1       6.288  63.350  42.643  0.00  0.00    +0.000 C 
ATOM      2  C10 UNL     1       6.386  64.121  41.317  0.00  0.00    +0.000 C 
ATOM      3  C11 UNL     1       6.695  65.572  41.660  0.00  0.00    +0.000 C 
ATOM      4  C12 UNL     1       6.812  65.658  43.189  0.00  0.00    +0.000 C 
ATOM      5  C13 UNL     1       6.006  64.450  43.721  0.00  0.00    +0.000 C 
ATOM      6  C14 UNL     1       4.501  64.821  43.778  0.00  0.00    +0.000 C 
ATOM      7  C15 UNL     1       4.248  66.052  44.637  0.00  0.00    +0.000 C 
ATOM      8  C16 UNL     1       4.932  67.331  44.089  0.00  0.00    +0.000 C 
ATOM      9  C17 UNL     1       6.435  67.086  43.724  0.00  0.00    +0.000 C 
ATOM     10  C18 UNL     1       7.380  67.601  44.829  0.00  0.00    +0.000 C 
ATOM     11  C19 UNL     1       7.227  69.116  45.043  0.00  0.00    +0.000 C 
ATOM     12  C20 UNL     1       5.842  69.642  45.099  0.00  0.00    +0.000 C 
ATOM     13  C21 UNL     1       4.649  68.627  45.005  0.00  0.00    +0.000 C 
ATOM     14  C22 UNL     1       3.442  69.384  44.457  0.00  0.00    +0.000 C 
ATOM     15  O3  UNL     1       2.413  68.782  44.185  0.00  0.00    +0.000 OA
ATOM     16  C23 UNL     1       3.489  70.880  44.265  0.00  0.00    +0.000 C 
ATOM     17  C24 UNL     1       4.158  71.542  45.477  0.00  0.00    +0.000 C 
ATOM     18  C25 UNL     1       5.610  71.050  45.700  0.00  0.00    +0.000 C 
ATOM     19  C26 UNL     1       4.312  68.249  46.475  0.00  0.00    +0.000 C 
ATOM     20  O5  UNL     1       6.623  69.755  43.933  0.00  0.00    +0.000 OA
ATOM     21  C27 UNL     1       6.545  64.026  45.113  0.00  0.00    +0.000 C 
ENDROOT
BRANCH   1  22
ATOM     22  C7  UNL     1       5.301  62.129  42.546  0.00  0.00    +0.000 C 
ATOM     23  C8  UNL     1       5.999  60.785  42.842  0.00  0.00    +0.000 C 
BRANCH  22  30
ATOM     24  C1  UNL     1       1.194  63.072  39.541  0.00  0.00    +0.000 C 
ATOM     25  C2  UNL     1       2.680  62.934  39.724  0.00  0.00    +0.000 C 
ATOM     26  C3  UNL     1       3.495  62.916  38.653  0.00  0.00    +0.000 C 
ATOM     27  C4  UNL     1       4.949  62.769  38.856  0.00  0.00    +0.000 C 
ATOM     28  O1  UNL     1       5.752  62.932  37.901  0.00  0.00    +0.000 OA
ATOM     29  O2  UNL     1       5.435  62.462  40.127  0.00  0.00    +0.000 OA
ATOM     30  C5  UNL     1       4.552  62.063  41.178  0.00  0.00    +0.000 C 
ATOM     31  C6  UNL     1       3.257  62.908  41.125  0.00  0.00    +0.000 C 
BRANCH  26  32
ATOM     32  O6  UNL     1       2.969  63.027  37.364  0.00  0.00    +0.000 OA
ATOM     33  H38 UNL     1       2.436  63.839  37.075  0.00  0.00    +0.000 HD
ENDBRANCH  26  32
ENDBRANCH  22  30
ENDBRANCH   1  22
BRANCH  18  34
ATOM     34  O4  UNL     1       5.908  71.023  47.072  0.00  0.00    +0.000 OA
ATOM     35  H31 UNL     1       5.073  70.763  47.541  0.00  0.00    +0.000 HD
ENDBRANCH  18  34
TORSDOF 4
ENDMDL
MODEL 3
REMARK VINA RESULT:      -3.9      1.662      7.768
REMARK  Name = .\Withaferin A.pdb
REMARK  8 active torsions:
REMARK  status: ('A' for Active; 'I' for Inactive)
REMARK    1  A    between atoms: C1_1  and  C2_2
REMARK    2  A    between atoms: C3_3  and  O6_33
REMARK    3  A    between atoms: C5_7  and  C7_9
REMARK    4  A    between atoms: C7_9  and  C8_10
REMARK    5  A    between atoms: C7_9  and  C9_11
REMARK    6  A    between atoms: C13_15  and  C27_32
REMARK    7  A    between atoms: C21_23  and  C26_30
REMARK    8  A    between atoms: C25_28  and  O4_29
REMARK                            x       y       z     vdW  Elec       q    Type
REMARK                         _______ _______ _______ _____ _____    ______ ____
ROOT
ATOM      1  C9  UNL     1       6.313  66.036  44.373  0.00  0.00    +0.000 C 
ATOM      2  C10 UNL     1       4.811  66.332  44.504  0.00  0.00    +0.000 C 
ATOM      3  C11 UNL     1       4.092  65.480  43.467  0.00  0.00    +0.000 C 
ATOM      4  C12 UNL     1       5.163  64.652  42.743  0.00  0.00    +0.000 C 
ATOM      5  C13 UNL     1       6.478  65.444  42.933  0.00  0.00    +0.000 C 
ATOM      6  C14 UNL     1       6.564  66.564  41.863  0.00  0.00    +0.000 C 
ATOM      7  C15 UNL     1       6.476  66.009  40.447  0.00  0.00    +0.000 C 
ATOM      8  C16 UNL     1       5.127  65.304  40.151  0.00  0.00    +0.000 C 
ATOM      9  C17 UNL     1       4.730  64.291  41.276  0.00  0.00    +0.000 C 
ATOM     10  C18 UNL     1       5.058  62.838  40.875  0.00  0.00    +0.000 C 
ATOM     11  C19 UNL     1       4.287  62.411  39.616  0.00  0.00    +0.000 C 
ATOM     12  C20 UNL     1       4.252  63.384  38.497  0.00  0.00    +0.000 C 
ATOM     13  C21 UNL     1       5.045  64.729  38.647  0.00  0.00    +0.000 C 
ATOM     14  C22 UNL     1       4.377  65.761  37.742  0.00  0.00    +0.000 C 
ATOM     15  O3  UNL     1       4.745  66.927  37.766  0.00  0.00    +0.000 OA
ATOM     16  C23 UNL     1       3.276  65.359  36.792  0.00  0.00    +0.000 C 
ATOM     17  C24 UNL     1       3.643  64.044  36.093  0.00  0.00    +0.000 C 
ATOM     18  C25 UNL     1       3.853  62.877  37.089  0.00  0.00    +0.000 C 
ATOM     19  C26 UNL     1       6.451  64.448  38.045  0.00  0.00    +0.000 C 
ATOM     20  O5  UNL     1       3.160  63.233  39.373  0.00  0.00    +0.000 OA
ATOM     21  C27 UNL     1       7.693  64.481  42.855  0.00  0.00    +0.000 C 
ENDROOT
BRANCH   1  22
ATOM     22  C7  UNL     1       7.198  67.273  44.778  0.00  0.00    +0.000 C 
ATOM     23  C8  UNL     1       7.872  67.088  46.154  0.00  0.00    +0.000 C 
BRANCH  22  30
ATOM     24  C1  UNL     1       5.527  71.506  42.313  0.00  0.00    +0.000 C 
ATOM     25  C2  UNL     1       5.326  70.415  43.329  0.00  0.00    +0.000 C 
ATOM     26  C3  UNL     1       4.293  70.475  44.190  0.00  0.00    +0.000 C 
ATOM     27  C4  UNL     1       4.121  69.399  45.185  0.00  0.00    +0.000 C 
ATOM     28  O1  UNL     1       3.074  69.324  45.879  0.00  0.00    +0.000 OA
ATOM     29  O2  UNL     1       5.128  68.447  45.344  0.00  0.00    +0.000 OA
ATOM     30  C5  UNL     1       6.410  68.620  44.735  0.00  0.00    +0.000 C 
ATOM     31  C6  UNL     1       6.241  69.208  43.314  0.00  0.00    +0.000 C 
BRANCH  26  32
ATOM     32  O6  UNL     1       3.398  71.546  44.146  0.00  0.00    +0.000 OA
ATOM     33  H38 UNL     1       2.812  71.782  44.937  0.00  0.00    +0.000 HD
ENDBRANCH  26  32
ENDBRANCH  22  30
ENDBRANCH   1  22
BRANCH  18  34
ATOM     34  O4  UNL     1       4.845  62.005  36.613  0.00  0.00    +0.000 OA
ATOM     35  H31 UNL     1       5.713  62.346  36.953  0.00  0.00    +0.000 HD
ENDBRANCH  18  34
TORSDOF 4
ENDMDL
MODEL 4
REMARK VINA RESULT:      -2.5      2.516      3.805
REMARK  Name = .\Withaferin A.pdb
REMARK  8 active torsions:
REMARK  status: ('A' for Active; 'I' for Inactive)
REMARK    1  A    between atoms: C1_1  and  C2_2
REMARK    2  A    between atoms: C3_3  and  O6_33
REMARK    3  A    between atoms: C5_7  and  C7_9
REMARK    4  A    between atoms: C7_9  and  C8_10
REMARK    5  A    between atoms: C7_9  and  C9_11
REMARK    6  A    between atoms: C13_15  and  C27_32
REMARK    7  A    between atoms: C21_23  and  C26_30
REMARK    8  A    between atoms: C25_28  and  O4_29
REMARK                            x       y       z     vdW  Elec       q    Type
REMARK                         _______ _______ _______ _____ _____    ______ ____
ROOT
ATOM      1  C9  UNL     1       5.672  63.097  41.273  0.00  0.00    +0.000 C 
ATOM      2  C10 UNL     1       5.053  63.845  40.082  0.00  0.00    +0.000 C 
ATOM      3  C11 UNL     1       5.514  65.293  40.168  0.00  0.00    +0.000 C 
ATOM      4  C12 UNL     1       6.435  65.400  41.393  0.00  0.00    +0.000 C 
ATOM      5  C13 UNL     1       6.026  64.221  42.306  0.00  0.00    +0.000 C 
ATOM      6  C14 UNL     1       4.790  64.628  43.151  0.00  0.00    +0.000 C 
ATOM      7  C15 UNL     1       5.052  65.878  43.980  0.00  0.00    +0.000 C 
ATOM      8  C16 UNL     1       5.351  67.131  43.117  0.00  0.00    +0.000 C 
ATOM      9  C17 UNL     1       6.420  66.845  42.010  0.00  0.00    +0.000 C 
ATOM     10  C18 UNL     1       7.816  67.354  42.422  0.00  0.00    +0.000 C 
ATOM     11  C19 UNL     1       7.820  68.876  42.646  0.00  0.00    +0.000 C 
ATOM     12  C20 UNL     1       6.687  69.436  43.422  0.00  0.00    +0.000 C 
ATOM     13  C21 UNL     1       5.618  68.448  44.008  0.00  0.00    +0.000 C 
ATOM     14  C22 UNL     1       4.315  69.225  44.173  0.00  0.00    +0.000 C 
ATOM     15  O3  UNL     1       3.294  68.644  44.511  0.00  0.00    +0.000 OA
ATOM     16  C23 UNL     1       4.270  70.716  43.947  0.00  0.00    +0.000 C 
ATOM     17  C24 UNL     1       5.491  71.381  44.594  0.00  0.00    +0.000 C 
ATOM     18  C25 UNL     1       6.831  70.858  44.017  0.00  0.00    +0.000 C 
ATOM     19  C26 UNL     1       6.119  68.101  45.439  0.00  0.00    +0.000 C 
ATOM     20  O5  UNL     1       6.723  69.512  42.016  0.00  0.00    +0.000 OA
ATOM     21  C27 UNL     1       7.223  63.805  43.203  0.00  0.00    +0.000 C 
ENDROOT
BRANCH   1  22
ATOM     22  C7  UNL     1       4.773  61.898  41.753  0.00  0.00    +0.000 C 
ATOM     23  C8  UNL     1       5.491  60.538  41.625  0.00  0.00    +0.000 C 
BRANCH  22  30
ATOM     24  C1  UNL     1      -0.402  61.839  41.803  0.00  0.00    +0.000 C 
ATOM     25  C2  UNL     1       0.898  62.241  41.163  0.00  0.00    +0.000 C 
ATOM     26  C3  UNL     1       0.908  62.768  39.924  0.00  0.00    +0.000 C 
ATOM     27  C4  UNL     1       2.196  63.145  39.312  0.00  0.00    +0.000 C 
ATOM     28  O1  UNL     1       2.232  63.805  38.241  0.00  0.00    +0.000 OA
ATOM     29  O2  UNL     1       3.387  62.777  39.940  0.00  0.00    +0.000 OA
ATOM     30  C5  UNL     1       3.390  61.853  41.030  0.00  0.00    +0.000 C 
ATOM     31  C6  UNL     1       2.183  62.131  41.958  0.00  0.00    +0.000 C 
BRANCH  26  32
ATOM     32  O6  UNL     1      -0.287  62.949  39.225  0.00  0.00    +0.000 OA
ATOM     33  H38 UNL     1      -0.967  62.205  39.132  0.00  0.00    +0.000 HD
ENDBRANCH  26  32
ENDBRANCH  22  30
ENDBRANCH   1  22
BRANCH  18  34
ATOM     34  O4  UNL     1       7.818  70.845  45.015  0.00  0.00    +0.000 OA
ATOM     35  H31 UNL     1       7.947  69.897  45.278  0.00  0.00    +0.000 HD
ENDBRANCH  18  34
TORSDOF 4
ENDMDL
MODEL 5
REMARK VINA RESULT:      -2.3      2.214      7.564
REMARK  Name = .\Withaferin A.pdb
REMARK  8 active torsions:
REMARK  status: ('A' for Active; 'I' for Inactive)
REMARK    1  A    between atoms: C1_1  and  C2_2
REMARK    2  A    between atoms: C3_3  and  O6_33
REMARK    3  A    between atoms: C5_7  and  C7_9
REMARK    4  A    between atoms: C7_9  and  C8_10
REMARK    5  A    between atoms: C7_9  and  C9_11
REMARK    6  A    between atoms: C13_15  and  C27_32
REMARK    7  A    between atoms: C21_23  and  C26_30
REMARK    8  A    between atoms: C25_28  and  O4_29
REMARK                            x       y       z     vdW  Elec       q    Type
REMARK                         _______ _______ _______ _____ _____    ______ ____
ROOT
ATOM      1  C9  UNL     1       7.871  66.141  44.064  0.00  0.00    +0.000 C 
ATOM      2  C10 UNL     1       7.413  65.178  45.171  0.00  0.00    +0.000 C 
ATOM      3  C11 UNL     1       6.858  63.936  44.487  0.00  0.00    +0.000 C 
ATOM      4  C12 UNL     1       7.016  64.146  42.974  0.00  0.00    +0.000 C 
ATOM      5  C13 UNL     1       7.089  65.680  42.788  0.00  0.00    +0.000 C 
ATOM      6  C14 UNL     1       5.652  66.264  42.758  0.00  0.00    +0.000 C 
ATOM      7  C15 UNL     1       4.802  65.633  41.663  0.00  0.00    +0.000 C 
ATOM      8  C16 UNL     1       4.588  64.110  41.857  0.00  0.00    +0.000 C 
ATOM      9  C17 UNL     1       5.929  63.359  42.158  0.00  0.00    +0.000 C 
ATOM     10  C18 UNL     1       6.485  62.661  40.901  0.00  0.00    +0.000 C 
ATOM     11  C19 UNL     1       5.507  61.604  40.361  0.00  0.00    +0.000 C 
ATOM     12  C20 UNL     1       4.079  61.996  40.288  0.00  0.00    +0.000 C 
ATOM     13  C21 UNL     1       3.680  63.458  40.695  0.00  0.00    +0.000 C 
ATOM     14  C22 UNL     1       2.222  63.430  41.143  0.00  0.00    +0.000 C 
ATOM     15  O3  UNL     1       1.707  64.432  41.618  0.00  0.00    +0.000 OA
ATOM     16  C23 UNL     1       1.389  62.181  40.988  0.00  0.00    +0.000 C 
ATOM     17  C24 UNL     1       1.643  61.551  39.613  0.00  0.00    +0.000 C 
ATOM     18  C25 UNL     1       3.126  61.156  39.402  0.00  0.00    +0.000 C 
ATOM     19  C26 UNL     1       3.729  64.281  39.377  0.00  0.00    +0.000 C 
ATOM     20  O5  UNL     1       4.567  61.196  41.338  0.00  0.00    +0.000 OA
ATOM     21  C27 UNL     1       7.873  66.020  41.493  0.00  0.00    +0.000 C 
ENDROOT
BRANCH   1  22
ATOM     22  C7  UNL     1       7.758  67.647  44.505  0.00  0.00    +0.000 C 
ATOM     23  C8  UNL     1       7.873  67.821  46.034  0.00  0.00    +0.000 C 
BRANCH  22  30
ATOM     24  C1  UNL     1       2.891  69.297  45.116  0.00  0.00    +0.000 C 
ATOM     25  C2  UNL     1       4.262  69.452  44.518  0.00  0.00    +0.000 C 
ATOM     26  C3  UNL     1       4.482  70.367  43.556  0.00  0.00    +0.000 C 
ATOM     27  C4  UNL     1       5.832  70.494  42.977  0.00  0.00    +0.000 C 
ATOM     28  O1  UNL     1       6.118  71.454  42.214  0.00  0.00    +0.000 OA
ATOM     29  O2  UNL     1       6.805  69.546  43.293  0.00  0.00    +0.000 OA
ATOM     30  C5  UNL     1       6.462  68.337  43.975  0.00  0.00    +0.000 C 
ATOM     31  C6  UNL     1       5.411  68.633  45.071  0.00  0.00    +0.000 C 
BRANCH  26  32
ATOM     32  O6  UNL     1       3.440  71.182  43.107  0.00  0.00    +0.000 OA
ATOM     33  H38 UNL     1       2.470  70.915  43.217  0.00  0.00    +0.000 HD
ENDBRANCH  26  32
ENDBRANCH  22  30
ENDBRANCH   1  22
BRANCH  18  34
ATOM     34  O4  UNL     1       3.485  61.316  38.054  0.00  0.00    +0.000 OA
ATOM     35  H31 UNL     1       2.644  61.470  37.551  0.00  0.00    +0.000 HD
ENDBRANCH  18  34
TORSDOF 4
ENDMDL
MODEL 6
REMARK VINA RESULT:      -2.3      1.796      7.785
REMARK  Name = .\Withaferin A.pdb
REMARK  8 active torsions:
REMARK  status: ('A' for Active; 'I' for Inactive)
REMARK    1  A    between atoms: C1_1  and  C2_2
REMARK    2  A    between atoms: C3_3  and  O6_33
REMARK    3  A    between atoms: C5_7  and  C7_9
REMARK    4  A    between atoms: C7_9  and  C8_10
REMARK    5  A    between atoms: C7_9  and  C9_11
REMARK    6  A    between atoms: C13_15  and  C27_32
REMARK    7  A    between atoms: C21_23  and  C26_30
REMARK    8  A    between atoms: C25_28  and  O4_29
REMARK                            x       y       z     vdW  Elec       q    Type
REMARK                         _______ _______ _______ _____ _____    ______ ____
ROOT
ATOM      1  C9  UNL     1       4.388  65.947  44.534  0.00  0.00    +0.000 C 
ATOM      2  C10 UNL     1       2.978  65.580  44.046  0.00  0.00    +0.000 C 
ATOM      3  C11 UNL     1       3.139  64.563  42.925  0.00  0.00    +0.000 C 
ATOM      4  C12 UNL     1       4.644  64.300  42.768  0.00  0.00    +0.000 C 
ATOM      5  C13 UNL     1       5.333  65.558  43.347  0.00  0.00    +0.000 C 
ATOM      6  C14 UNL     1       5.374  66.667  42.264  0.00  0.00    +0.000 C 
ATOM      7  C15 UNL     1       6.085  66.205  40.999  0.00  0.00    +0.000 C 
ATOM      8  C16 UNL     1       5.374  65.018  40.299  0.00  0.00    +0.000 C 
ATOM      9  C17 UNL     1       5.012  63.871  41.302  0.00  0.00    +0.000 C 
ATOM     10  C18 UNL     1       6.028  62.714  41.234  0.00  0.00    +0.000 C 
ATOM     11  C19 UNL     1       6.062  62.072  39.836  0.00  0.00    +0.000 C 
ATOM     12  C20 UNL     1       6.082  63.000  38.680  0.00  0.00    +0.000 C 
ATOM     13  C21 UNL     1       6.133  64.544  38.958  0.00  0.00    +0.000 C 
ATOM     14  C22 UNL     1       5.523  65.250  37.750  0.00  0.00    +0.000 C 
ATOM     15  O3  UNL     1       5.346  66.460  37.772  0.00  0.00    +0.000 OA
ATOM     16  C23 UNL     1       5.152  64.477  36.508  0.00  0.00    +0.000 C 
ATOM     17  C24 UNL     1       6.263  63.476  36.164  0.00  0.00    +0.000 C 
ATOM     18  C25 UNL     1       6.515  62.451  37.299  0.00  0.00    +0.000 C 
ATOM     19  C26 UNL     1       7.645  64.909  38.974  0.00  0.00    +0.000 C 
ATOM     20  O5  UNL     1       4.896  62.360  39.087  0.00  0.00    +0.000 OA
ATOM     21  C27 UNL     1       6.755  65.197  43.853  0.00  0.00    +0.000 C 
ENDROOT
BRANCH   1  22
ATOM     22  C7  UNL     1       4.459  67.417  45.093  0.00  0.00    +0.000 C 
ATOM     23  C8  UNL     1       3.087  68.123  45.059  0.00  0.00    +0.000 C 
BRANCH  22  30
ATOM     24  C1  UNL     1       6.013  70.465  41.209  0.00  0.00    +0.000 C 
ATOM     25  C2  UNL     1       6.043  70.073  42.661  0.00  0.00    +0.000 C 
ATOM     26  C3  UNL     1       6.953  70.618  43.490  0.00  0.00    +0.000 C 
ATOM     27  C4  UNL     1       6.970  70.212  44.908  0.00  0.00    +0.000 C 
ATOM     28  O1  UNL     1       7.678  70.829  45.747  0.00  0.00    +0.000 OA
ATOM     29  O2  UNL     1       6.180  69.139  45.323  0.00  0.00    +0.000 OA
ATOM     30  C5  UNL     1       5.536  68.287  44.372  0.00  0.00    +0.000 C 
ATOM     31  C6  UNL     1       4.985  69.131  43.199  0.00  0.00    +0.000 C 
BRANCH  26  32
ATOM     32  O6  UNL     1       7.873  71.553  43.012  0.00  0.00    +0.000 OA
ATOM     33  H38 UNL     1       8.781  71.273  42.660  0.00  0.00    +0.000 HD
ENDBRANCH  26  32
ENDBRANCH  22  30
ENDBRANCH   1  22
BRANCH  18  34
ATOM     34  O4  UNL     1       7.873  62.101  37.344  0.00  0.00    +0.000 OA
ATOM     35  H31 UNL     1       8.318  62.758  37.940  0.00  0.00    +0.000 HD
ENDBRANCH  18  34
TORSDOF 4
ENDMDL
