MODEL 1
REMARK VINA RESULT:      -6.1      0.000      0.000
REMARK  Name = .\Withaferin A.pdb
REMARK  8 active torsions:
REMARK  status: ('A' for Active; 'I' for Inactive)
REMARK    1  A    between atoms: C1_1  and  C2_2
REMARK    2  A    between atoms: C3_3  and  O6_33
REMARK    3  A    between atoms: C5_7  and  C7_9
REMARK    4  A    between atoms: C7_9  and  C8_10
REMARK    5  A    between atoms: C7_9  and  C9_11
REMARK    6  A    between atoms: C13_15  and  C27_32
REMARK    7  A    between atoms: C21_23  and  C26_30
REMARK    8  A    between atoms: C25_28  and  O4_29
REMARK                            x       y       z     vdW  Elec       q    Type
REMARK                         _______ _______ _______ _____ _____    ______ ____
ROOT
ATOM      1  C9  UNL     1       2.674  39.625  39.027  0.00  0.00    +0.000 C 
ATOM      2  C10 UNL     1       3.631  39.561  37.827  0.00  0.00    +0.000 C 
ATOM      3  C11 UNL     1       3.799  38.092  37.461  0.00  0.00    +0.000 C 
ATOM      4  C12 UNL     1       2.916  37.285  38.424  0.00  0.00    +0.000 C 
ATOM      5  C13 UNL     1       2.736  38.195  39.662  0.00  0.00    +0.000 C 
ATOM      6  C14 UNL     1       3.964  38.039  40.597  0.00  0.00    +0.000 C 
ATOM      7  C15 UNL     1       4.176  36.593  41.025  0.00  0.00    +0.000 C 
ATOM      8  C16 UNL     1       4.483  35.644  39.836  0.00  0.00    +0.000 C 
ATOM      9  C17 UNL     1       3.475  35.835  38.653  0.00  0.00    +0.000 C 
ATOM     10  C18 UNL     1       2.385  34.745  38.654  0.00  0.00    +0.000 C 
ATOM     11  C19 UNL     1       2.989  33.341  38.487  0.00  0.00    +0.000 C 
ATOM     12  C20 UNL     1       4.190  33.033  39.300  0.00  0.00    +0.000 C 
ATOM     13  C21 UNL     1       4.714  34.119  40.305  0.00  0.00    +0.000 C 
ATOM     14  C22 UNL     1       6.205  33.870  40.516  0.00  0.00    +0.000 C 
ATOM     15  O3  UNL     1       6.870  34.657  41.175  0.00  0.00    +0.000 OA
ATOM     16  C23 UNL     1       6.874  32.647  39.939  0.00  0.00    +0.000 C 
ATOM     17  C24 UNL     1       5.988  31.415  40.157  0.00  0.00    +0.000 C 
ATOM     18  C25 UNL     1       4.599  31.551  39.484  0.00  0.00    +0.000 C 
ATOM     19  C26 UNL     1       4.011  33.803  41.655  0.00  0.00    +0.000 C 
ATOM     20  O5  UNL     1       4.294  33.380  37.939  0.00  0.00    +0.000 OA
ATOM     21  C27 UNL     1       1.411  37.843  40.390  0.00  0.00    +0.000 C 
ENDROOT
BRANCH   1  22
ATOM     22  C7  UNL     1       2.964  40.865  39.951  0.00  0.00    +0.000 C 
ATOM     23  C8  UNL     1       4.038  40.563  41.018  0.00  0.00    +0.000 C 
BRANCH  22  30
ATOM     24  C1  UNL     1      -2.127  41.794  39.997  0.00  0.00    +0.000 C 
ATOM     25  C2  UNL     1      -0.849  41.463  40.716  0.00  0.00    +0.000 C 
ATOM     26  C3  UNL     1      -0.805  41.480  42.061  0.00  0.00    +0.000 C 
ATOM     27  C4  UNL     1       0.463  41.163  42.745  0.00  0.00    +0.000 C 
ATOM     28  O1  UNL     1       0.497  40.990  43.992  0.00  0.00    +0.000 OA
ATOM     29  O2  UNL     1       1.633  41.037  41.996  0.00  0.00    +0.000 OA
ATOM     30  C5  UNL     1       1.675  41.434  40.623  0.00  0.00    +0.000 C 
ATOM     31  C6  UNL     1       0.361  41.022  39.917  0.00  0.00    +0.000 C 
BRANCH  26  32
ATOM     32  O6  UNL     1      -1.945  41.803  42.800  0.00  0.00    +0.000 OA
ATOM     33  H38 UNL     1      -2.791  42.138  42.355  0.00  0.00    +0.000 HD
ENDBRANCH  26  32
ENDBRANCH  22  30
ENDBRANCH   1  22
BRANCH  18  34
ATOM     34  O4  UNL     1       3.622  30.893  40.248  0.00  0.00    +0.000 OA
ATOM     35  H31 UNL     1       3.295  31.548  40.919  0.00  0.00    +0.000 HD
ENDBRANCH  18  34
TORSDOF 4
ENDMDL
MODEL 2
REMARK VINA RESULT:      -6.1      2.073      3.545
REMARK  Name = .\Withaferin A.pdb
REMARK  8 active torsions:
REMARK  status: ('A' for Active; 'I' for Inactive)
REMARK    1  A    between atoms: C1_1  and  C2_2
REMARK    2  A    between atoms: C3_3  and  O6_33
REMARK    3  A    between atoms: C5_7  and  C7_9
REMARK    4  A    between atoms: C7_9  and  C8_10
REMARK    5  A    between atoms: C7_9  and  C9_11
REMARK    6  A    between atoms: C13_15  and  C27_32
REMARK    7  A    between atoms: C21_23  and  C26_30
REMARK    8  A    between atoms: C25_28  and  O4_29
REMARK                            x       y       z     vdW  Elec       q    Type
REMARK                         _______ _______ _______ _____ _____    ______ ____
ROOT
ATOM      1  C9  UNL     1       3.599  38.945  43.173  0.00  0.00    +0.000 C 
ATOM      2  C10 UNL     1       2.231  38.303  43.453  0.00  0.00    +0.000 C 
ATOM      3  C11 UNL     1       2.443  36.796  43.509  0.00  0.00    +0.000 C 
ATOM      4  C12 UNL     1       3.943  36.544  43.295  0.00  0.00    +0.000 C 
ATOM      5  C13 UNL     1       4.456  37.795  42.544  0.00  0.00    +0.000 C 
ATOM      6  C14 UNL     1       4.174  37.638  41.027  0.00  0.00    +0.000 C 
ATOM      7  C15 UNL     1       4.807  36.376  40.456  0.00  0.00    +0.000 C 
ATOM      8  C16 UNL     1       4.246  35.074  41.083  0.00  0.00    +0.000 C 
ATOM      9  C17 UNL     1       4.212  35.138  42.647  0.00  0.00    +0.000 C 
ATOM     10  C18 UNL     1       5.405  34.388  43.273  0.00  0.00    +0.000 C 
ATOM     11  C19 UNL     1       5.394  32.897  42.901  0.00  0.00    +0.000 C 
ATOM     12  C20 UNL     1       5.115  32.568  41.482  0.00  0.00    +0.000 C 
ATOM     13  C21 UNL     1       4.919  33.746  40.464  0.00  0.00    +0.000 C 
ATOM     14  C22 UNL     1       4.058  33.225  39.317  0.00  0.00    +0.000 C 
ATOM     15  O3  UNL     1       3.670  33.991  38.445  0.00  0.00    +0.000 OA
ATOM     16  C23 UNL     1       3.693  31.764  39.225  0.00  0.00    +0.000 C 
ATOM     17  C24 UNL     1       4.919  30.898  39.543  0.00  0.00    +0.000 C 
ATOM     18  C25 UNL     1       5.479  31.155  40.964  0.00  0.00    +0.000 C 
ATOM     19  C26 UNL     1       6.332  34.021  39.875  0.00  0.00    +0.000 C 
ATOM     20  O5  UNL     1       4.117  32.462  42.470  0.00  0.00    +0.000 OA
ATOM     21  C27 UNL     1       5.969  38.000  42.828  0.00  0.00    +0.000 C 
ENDROOT
BRANCH   1  22
ATOM     22  C7  UNL     1       3.467  40.298  42.379  0.00  0.00    +0.000 C 
ATOM     23  C8  UNL     1       3.637  41.532  43.291  0.00  0.00    +0.000 C 
BRANCH  22  30
ATOM     24  C1  UNL     1      -1.561  41.462  41.995  0.00  0.00    +0.000 C 
ATOM     25  C2  UNL     1      -0.186  41.376  41.393  0.00  0.00    +0.000 C 
ATOM     26  C3  UNL     1      -0.013  41.560  40.070  0.00  0.00    +0.000 C 
ATOM     27  C4  UNL     1       1.344  41.460  39.500  0.00  0.00    +0.000 C 
ATOM     28  O1  UNL     1       1.569  41.804  38.310  0.00  0.00    +0.000 OA
ATOM     29  O2  UNL     1       2.390  40.994  40.297  0.00  0.00    +0.000 OA
ATOM     30  C5  UNL     1       2.135  40.397  41.571  0.00  0.00    +0.000 C 
ATOM     31  C6  UNL     1       1.011  41.172  42.299  0.00  0.00    +0.000 C 
BRANCH  26  32
ATOM     32  O6  UNL     1      -1.107  41.834  39.247  0.00  0.00    +0.000 OA
ATOM     33  H38 UNL     1      -1.807  41.131  39.040  0.00  0.00    +0.000 HD
ENDBRANCH  26  32
ENDBRANCH  22  30
ENDBRANCH   1  22
BRANCH  18  34
ATOM     34  O4  UNL     1       6.874  31.004  40.972  0.00  0.00    +0.000 OA
ATOM     35  H31 UNL     1       7.098  30.381  40.233  0.00  0.00    +0.000 HD
ENDBRANCH  18  34
TORSDOF 4
ENDMDL
MODEL 3
REMARK VINA RESULT:      -5.6      1.882      3.129
REMARK  Name = .\Withaferin A.pdb
REMARK  8 active torsions:
REMARK  status: ('A' for Active; 'I' for Inactive)
REMARK    1  A    between atoms: C1_1  and  C2_2
REMARK    2  A    between atoms: C3_3  and  O6_33
REMARK    3  A    between atoms: C5_7  and  C7_9
REMARK    4  A    between atoms: C7_9  and  C8_10
REMARK    5  A    between atoms: C7_9  and  C9_11
REMARK    6  A    between atoms: C13_15  and  C27_32
REMARK    7  A    between atoms: C21_23  and  C26_30
REMARK    8  A    between atoms: C25_28  and  O4_29
REMARK                            x       y       z     vdW  Elec       q    Type
REMARK                         _______ _______ _______ _____ _____    ______ ____
ROOT
ATOM      1  C9  UNL     1       3.074  39.065  42.039  0.00  0.00    +0.000 C 
ATOM      2  C10 UNL     1       1.739  38.429  41.620  0.00  0.00    +0.000 C 
ATOM      3  C11 UNL     1       1.801  36.957  42.002  0.00  0.00    +0.000 C 
ATOM      4  C12 UNL     1       3.160  36.724  42.679  0.00  0.00    +0.000 C 
ATOM      5  C13 UNL     1       4.068  37.861  42.154  0.00  0.00    +0.000 C 
ATOM      6  C14 UNL     1       4.645  37.462  40.771  0.00  0.00    +0.000 C 
ATOM      7  C15 UNL     1       5.414  36.150  40.829  0.00  0.00    +0.000 C 
ATOM      8  C16 UNL     1       4.530  34.941  41.233  0.00  0.00    +0.000 C 
ATOM      9  C17 UNL     1       3.657  35.245  42.497  0.00  0.00    +0.000 C 
ATOM     10  C18 UNL     1       4.275  34.639  43.773  0.00  0.00    +0.000 C 
ATOM     11  C19 UNL     1       4.383  33.108  43.678  0.00  0.00    +0.000 C 
ATOM     12  C20 UNL     1       4.900  32.557  42.403  0.00  0.00    +0.000 C 
ATOM     13  C21 UNL     1       5.355  33.557  41.282  0.00  0.00    +0.000 C 
ATOM     14  C22 UNL     1       5.227  32.838  39.943  0.00  0.00    +0.000 C 
ATOM     15  O3  UNL     1       5.417  33.447  38.899  0.00  0.00    +0.000 OA
ATOM     16  C23 UNL     1       4.887  31.369  39.883  0.00  0.00    +0.000 C 
ATOM     17  C24 UNL     1       5.693  30.603  40.939  0.00  0.00    +0.000 C 
ATOM     18  C25 UNL     1       5.406  31.094  42.381  0.00  0.00    +0.000 C 
ATOM     19  C26 UNL     1       6.874  33.785  41.525  0.00  0.00    +0.000 C 
ATOM     20  O5  UNL     1       3.522  32.571  42.691  0.00  0.00    +0.000 OA
ATOM     21  C27 UNL     1       5.193  38.156  43.182  0.00  0.00    +0.000 C 
ENDROOT
BRANCH   1  22
ATOM     22  C7  UNL     1       3.470  40.274  41.113  0.00  0.00    +0.000 C 
ATOM     23  C8  UNL     1       4.479  41.226  41.791  0.00  0.00    +0.000 C 
BRANCH  22  30
ATOM     24  C1  UNL     1       0.235  41.747  37.352  0.00  0.00    +0.000 C 
ATOM     25  C2  UNL     1       0.498  41.389  38.788  0.00  0.00    +0.000 C 
ATOM     26  C3  UNL     1      -0.447  41.599  39.723  0.00  0.00    +0.000 C 
ATOM     27  C4  UNL     1      -0.163  41.250  41.128  0.00  0.00    +0.000 C 
ATOM     28  O1  UNL     1      -1.078  41.259  41.992  0.00  0.00    +0.000 OA
ATOM     29  O2  UNL     1       1.134  40.889  41.495  0.00  0.00    +0.000 OA
ATOM     30  C5  UNL     1       2.232  41.072  40.597  0.00  0.00    +0.000 C 
ATOM     31  C6  UNL     1       1.800  40.706  39.157  0.00  0.00    +0.000 C 
BRANCH  26  32
ATOM     32  O6  UNL     1      -1.681  42.149  39.368  0.00  0.00    +0.000 OA
ATOM     33  H38 UNL     1      -2.554  41.755  39.697  0.00  0.00    +0.000 HD
ENDBRANCH  26  32
ENDBRANCH  22  30
ENDBRANCH   1  22
BRANCH  18  34
ATOM     34  O4  UNL     1       6.563  30.991  43.168  0.00  0.00    +0.000 OA
ATOM     35  H31 UNL     1       6.670  31.861  43.634  0.00  0.00    +0.000 HD
ENDBRANCH  18  34
TORSDOF 4
ENDMDL
MODEL 4
REMARK VINA RESULT:      -5.6      1.993      3.088
REMARK  Name = .\Withaferin A.pdb
REMARK  8 active torsions:
REMARK  status: ('A' for Active; 'I' for Inactive)
REMARK    1  A    between atoms: C1_1  and  C2_2
REMARK    2  A    between atoms: C3_3  and  O6_33
REMARK    3  A    between atoms: C5_7  and  C7_9
REMARK    4  A    between atoms: C7_9  and  C8_10
REMARK    5  A    between atoms: C7_9  and  C9_11
REMARK    6  A    between atoms: C13_15  and  C27_32
REMARK    7  A    between atoms: C21_23  and  C26_30
REMARK    8  A    between atoms: C25_28  and  O4_29
REMARK                            x       y       z     vdW  Elec       q    Type
REMARK                         _______ _______ _______ _____ _____    ______ ____
ROOT
ATOM      1  C9  UNL     1       1.725  39.178  39.639  0.00  0.00    +0.000 C 
ATOM      2  C10 UNL     1       2.944  39.697  38.861  0.00  0.00    +0.000 C 
ATOM      3  C11 UNL     1       3.488  38.532  38.045  0.00  0.00    +0.000 C 
ATOM      4  C12 UNL     1       2.572  37.329  38.313  0.00  0.00    +0.000 C 
ATOM      5  C13 UNL     1       1.912  37.624  39.680  0.00  0.00    +0.000 C 
ATOM      6  C14 UNL     1       2.873  37.195  40.819  0.00  0.00    +0.000 C 
ATOM      7  C15 UNL     1       3.258  35.725  40.719  0.00  0.00    +0.000 C 
ATOM      8  C16 UNL     1       4.034  35.384  39.420  0.00  0.00    +0.000 C 
ATOM      9  C17 UNL     1       3.335  35.966  38.145  0.00  0.00    +0.000 C 
ATOM     10  C18 UNL     1       2.520  34.889  37.402  0.00  0.00    +0.000 C 
ATOM     11  C19 UNL     1       3.415  33.735  36.918  0.00  0.00    +0.000 C 
ATOM     12  C20 UNL     1       4.413  33.218  37.885  0.00  0.00    +0.000 C 
ATOM     13  C21 UNL     1       4.442  33.827  39.331  0.00  0.00    +0.000 C 
ATOM     14  C22 UNL     1       5.851  33.636  39.883  0.00  0.00    +0.000 C 
ATOM     15  O3  UNL     1       6.161  34.130  40.959  0.00  0.00    +0.000 OA
ATOM     16  C23 UNL     1       6.874  32.823  39.129  0.00  0.00    +0.000 C 
ATOM     17  C24 UNL     1       6.227  31.543  38.586  0.00  0.00    +0.000 C 
ATOM     18  C25 UNL     1       5.051  31.832  37.620  0.00  0.00    +0.000 C 
ATOM     19  C26 UNL     1       3.502  32.922  40.178  0.00  0.00    +0.000 C 
ATOM     20  O5  UNL     1       4.780  34.106  36.856  0.00  0.00    +0.000 OA
ATOM     21  C27 UNL     1       0.546  36.893  39.777  0.00  0.00    +0.000 C 
ENDROOT
BRANCH   1  22
ATOM     22  C7  UNL     1       1.521  39.941  41.000  0.00  0.00    +0.000 C 
ATOM     23  C8  UNL     1       0.345  40.939  40.943  0.00  0.00    +0.000 C 
BRANCH  22  30
ATOM     24  C1  UNL     1       3.956  43.660  43.651  0.00  0.00    +0.000 C 
ATOM     25  C2  UNL     1       3.887  42.250  43.135  0.00  0.00    +0.000 C 
ATOM     26  C3  UNL     1       4.958  41.439  43.233  0.00  0.00    +0.000 C 
ATOM     27  C4  UNL     1       4.870  40.063  42.711  0.00  0.00    +0.000 C 
ATOM     28  O1  UNL     1       5.779  39.224  42.947  0.00  0.00    +0.000 OA
ATOM     29  O2  UNL     1       3.757  39.685  41.958  0.00  0.00    +0.000 OA
ATOM     30  C5  UNL     1       2.819  40.657  41.491  0.00  0.00    +0.000 C 
ATOM     31  C6  UNL     1       2.576  41.722  42.587  0.00  0.00    +0.000 C 
BRANCH  26  32
ATOM     32  O6  UNL     1       6.140  41.900  43.817  0.00  0.00    +0.000 OA
ATOM     33  H38 UNL     1       6.660  41.337  44.479  0.00  0.00    +0.000 HD
ENDBRANCH  26  32
ENDBRANCH  22  30
ENDBRANCH   1  22
BRANCH  18  34
ATOM     34  O4  UNL     1       4.067  30.838  37.741  0.00  0.00    +0.000 OA
ATOM     35  H31 UNL     1       4.540  29.993  37.956  0.00  0.00    +0.000 HD
ENDBRANCH  18  34
TORSDOF 4
ENDMDL
MODEL 5
REMARK VINA RESULT:      -5.5      1.704      8.150
REMARK  Name = .\Withaferin A.pdb
REMARK  8 active torsions:
REMARK  status: ('A' for Active; 'I' for Inactive)
REMARK    1  A    between atoms: C1_1  and  C2_2
REMARK    2  A    between atoms: C3_3  and  O6_33
REMARK    3  A    between atoms: C5_7  and  C7_9
REMARK    4  A    between atoms: C7_9  and  C8_10
REMARK    5  A    between atoms: C7_9  and  C9_11
REMARK    6  A    between atoms: C13_15  and  C27_32
REMARK    7  A    between atoms: C21_23  and  C26_30
REMARK    8  A    between atoms: C25_28  and  O4_29
REMARK                            x       y       z     vdW  Elec       q    Type
REMARK                         _______ _______ _______ _____ _____    ______ ____
ROOT
ATOM      1  C9  UNL     1       2.864  35.377  37.899  0.00  0.00    +0.000 C 
ATOM      2  C10 UNL     1       1.839  34.793  38.884  0.00  0.00    +0.000 C 
ATOM      3  C11 UNL     1       1.131  35.966  39.547  0.00  0.00    +0.000 C 
ATOM      4  C12 UNL     1       1.711  37.248  38.932  0.00  0.00    +0.000 C 
ATOM      5  C13 UNL     1       3.105  36.842  38.399  0.00  0.00    +0.000 C 
ATOM      6  C14 UNL     1       4.133  36.886  39.559  0.00  0.00    +0.000 C 
ATOM      7  C15 UNL     1       4.194  38.258  40.217  0.00  0.00    +0.000 C 
ATOM      8  C16 UNL     1       2.856  38.677  40.880  0.00  0.00    +0.000 C 
ATOM      9  C17 UNL     1       1.632  38.461  39.928  0.00  0.00    +0.000 C 
ATOM     10  C18 UNL     1       1.190  39.780  39.261  0.00  0.00    +0.000 C 
ATOM     11  C19 UNL     1       0.751  40.821  40.304  0.00  0.00    +0.000 C 
ATOM     12  C20 UNL     1       1.618  40.975  41.496  0.00  0.00    +0.000 C 
ATOM     13  C21 UNL     1       2.937  40.127  41.579  0.00  0.00    +0.000 C 
ATOM     14  C22 UNL     1       3.287  39.964  43.055  0.00  0.00    +0.000 C 
ATOM     15  O3  UNL     1       4.217  39.243  43.388  0.00  0.00    +0.000 OA
ATOM     16  C23 UNL     1       2.513  40.700  44.120  0.00  0.00    +0.000 C 
ATOM     17  C24 UNL     1       2.271  42.150  43.683  0.00  0.00    +0.000 C 
ATOM     18  C25 UNL     1       1.466  42.249  42.363  0.00  0.00    +0.000 C 
ATOM     19  C26 UNL     1       4.042  41.024  40.952  0.00  0.00    +0.000 C 
ATOM     20  O5  UNL     1       0.425  40.229  41.548  0.00  0.00    +0.000 OA
ATOM     21  C27 UNL     1       3.518  37.776  37.230  0.00  0.00    +0.000 C 
ENDROOT
BRANCH   1  22
ATOM     22  C7  UNL     1       4.112  34.437  37.715  0.00  0.00    +0.000 C 
ATOM     23  C8  UNL     1       3.886  33.368  36.625  0.00  0.00    +0.000 C 
BRANCH  22  30
ATOM     24  C1  UNL     1       6.276  30.553  40.364  0.00  0.00    +0.000 C 
ATOM     25  C2  UNL     1       5.994  32.019  40.183  0.00  0.00    +0.000 C 
ATOM     26  C3  UNL     1       6.296  32.892  41.162  0.00  0.00    +0.000 C 
ATOM     27  C4  UNL     1       6.001  34.324  40.966  0.00  0.00    +0.000 C 
ATOM     28  O1  UNL     1       6.432  35.187  41.775  0.00  0.00    +0.000 OA
ATOM     29  O2  UNL     1       5.247  34.724  39.862  0.00  0.00    +0.000 OA
ATOM     30  C5  UNL     1       4.566  33.765  39.049  0.00  0.00    +0.000 C 
ATOM     31  C6  UNL     1       5.454  32.513  38.856  0.00  0.00    +0.000 C 
BRANCH  26  32
ATOM     32  O6  UNL     1       6.874  32.446  42.352  0.00  0.00    +0.000 OA
ATOM     33  H38 UNL     1       7.829  32.676  42.598  0.00  0.00    +0.000 HD
ENDBRANCH  26  32
ENDBRANCH  22  30
ENDBRANCH   1  22
BRANCH  18  34
ATOM     34  O4  UNL     1       1.883  43.366  41.621  0.00  0.00    +0.000 OA
ATOM     35  H31 UNL     1       1.060  43.845  41.340  0.00  0.00    +0.000 HD
ENDBRANCH  18  34
TORSDOF 4
ENDMDL
MODEL 6
REMARK VINA RESULT:      -4.7      1.728      7.991
REMARK  Name = .\Withaferin A.pdb
REMARK  8 active torsions:
REMARK  status: ('A' for Active; 'I' for Inactive)
REMARK    1  A    between atoms: C1_1  and  C2_2
REMARK    2  A    between atoms: C3_3  and  O6_33
REMARK    3  A    between atoms: C5_7  and  C7_9
REMARK    4  A    between atoms: C7_9  and  C8_10
REMARK    5  A    between atoms: C7_9  and  C9_11
REMARK    6  A    between atoms: C13_15  and  C27_32
REMARK    7  A    between atoms: C21_23  and  C26_30
REMARK    8  A    between atoms: C25_28  and  O4_29
REMARK                            x       y       z     vdW  Elec       q    Type
REMARK                         _______ _______ _______ _____ _____    ______ ____
ROOT
ATOM      1  C9  UNL     1       2.899  35.456  38.040  0.00  0.00    +0.000 C 
ATOM      2  C10 UNL     1       1.936  34.899  39.100  0.00  0.00    +0.000 C 
ATOM      3  C11 UNL     1       1.266  36.091  39.771  0.00  0.00    +0.000 C 
ATOM      4  C12 UNL     1       1.808  37.355  39.088  0.00  0.00    +0.000 C 
ATOM      5  C13 UNL     1       3.168  36.934  38.484  0.00  0.00    +0.000 C 
ATOM      6  C14 UNL     1       4.263  37.010  39.579  0.00  0.00    +0.000 C 
ATOM      7  C15 UNL     1       4.361  38.400  40.193  0.00  0.00    +0.000 C 
ATOM      8  C16 UNL     1       3.064  38.837  40.924  0.00  0.00    +0.000 C 
ATOM      9  C17 UNL     1       1.786  38.595  40.052  0.00  0.00    +0.000 C 
ATOM     10  C18 UNL     1       1.304  39.895  39.377  0.00  0.00    +0.000 C 
ATOM     11  C19 UNL     1       0.926  40.965  40.414  0.00  0.00    +0.000 C 
ATOM     12  C20 UNL     1       1.863  41.152  41.548  0.00  0.00    +0.000 C 
ATOM     13  C21 UNL     1       3.185  40.306  41.576  0.00  0.00    +0.000 C 
ATOM     14  C22 UNL     1       3.622  40.184  43.032  0.00  0.00    +0.000 C 
ATOM     15  O3  UNL     1       4.572  39.472  43.329  0.00  0.00    +0.000 OA
ATOM     16  C23 UNL     1       2.912  40.950  44.121  0.00  0.00    +0.000 C 
ATOM     17  C24 UNL     1       2.643  42.387  43.658  0.00  0.00    +0.000 C 
ATOM     18  C25 UNL     1       1.760  42.449  42.386  0.00  0.00    +0.000 C 
ATOM     19  C26 UNL     1       4.250  41.184  40.860  0.00  0.00    +0.000 C 
ATOM     20  O5  UNL     1       0.676  40.408  41.691  0.00  0.00    +0.000 OA
ATOM     21  C27 UNL     1       3.509  37.835  37.267  0.00  0.00    +0.000 C 
ENDROOT
BRANCH   1  22
ATOM     22  C7  UNL     1       4.136  34.510  37.808  0.00  0.00    +0.000 C 
ATOM     23  C8  UNL     1       3.892  33.493  36.673  0.00  0.00    +0.000 C 
BRANCH  22  30
ATOM     24  C1  UNL     1       5.242  34.447  42.863  0.00  0.00    +0.000 C 
ATOM     25  C2  UNL     1       4.700  33.775  41.632  0.00  0.00    +0.000 C 
ATOM     26  C3  UNL     1       4.403  32.462  41.652  0.00  0.00    +0.000 C 
ATOM     27  C4  UNL     1       3.882  31.823  40.429  0.00  0.00    +0.000 C 
ATOM     28  O1  UNL     1       3.423  30.651  40.460  0.00  0.00    +0.000 OA
ATOM     29  O2  UNL     1       3.885  32.535  39.229  0.00  0.00    +0.000 OA
ATOM     30  C5  UNL     1       4.587  33.775  39.109  0.00  0.00    +0.000 C 
ATOM     31  C6  UNL     1       4.406  34.608  40.400  0.00  0.00    +0.000 C 
BRANCH  26  32
ATOM     32  O6  UNL     1       4.593  31.713  42.815  0.00  0.00    +0.000 OA
ATOM     33  H38 UNL     1       3.951  30.978  43.085  0.00  0.00    +0.000 HD
ENDBRANCH  26  32
ENDBRANCH  22  30
ENDBRANCH   1  22
BRANCH  18  34
ATOM     34  O4  UNL     1       2.131  43.545  41.591  0.00  0.00    +0.000 OA
ATOM     35  H31 UNL     1       3.015  43.852  41.920  0.00  0.00    +0.000 HD
ENDBRANCH  18  34
TORSDOF 4
ENDMDL
MODEL 7
REMARK VINA RESULT:      -4.6      1.947      8.792
REMARK  Name = .\Withaferin A.pdb
REMARK  8 active torsions:
REMARK  status: ('A' for Active; 'I' for Inactive)
REMARK    1  A    between atoms: C1_1  and  C2_2
REMARK    2  A    between atoms: C3_3  and  O6_33
REMARK    3  A    between atoms: C5_7  and  C7_9
REMARK    4  A    between atoms: C7_9  and  C8_10
REMARK    5  A    between atoms: C7_9  and  C9_11
REMARK    6  A    between atoms: C13_15  and  C27_32
REMARK    7  A    between atoms: C21_23  and  C26_30
REMARK    8  A    between atoms: C25_28  and  O4_29
REMARK                            x       y       z     vdW  Elec       q    Type
REMARK                         _______ _______ _______ _____ _____    ______ ____
ROOT
ATOM      1  C9  UNL     1       2.809  35.185  38.987  0.00  0.00    +0.000 C 
ATOM      2  C10 UNL     1       1.279  35.277  38.874  0.00  0.00    +0.000 C 
ATOM      3  C11 UNL     1       0.910  36.753  38.938  0.00  0.00    +0.000 C 
ATOM      4  C12 UNL     1       2.223  37.541  39.055  0.00  0.00    +0.000 C 
ATOM      5  C13 UNL     1       3.241  36.538  39.648  0.00  0.00    +0.000 C 
ATOM      6  C14 UNL     1       3.083  36.496  41.190  0.00  0.00    +0.000 C 
ATOM      7  C15 UNL     1       3.261  37.870  41.820  0.00  0.00    +0.000 C 
ATOM      8  C16 UNL     1       2.193  38.896  41.359  0.00  0.00    +0.000 C 
ATOM      9  C17 UNL     1       2.019  38.908  39.803  0.00  0.00    +0.000 C 
ATOM     10  C18 UNL     1       2.775  40.085  39.155  0.00  0.00    +0.000 C 
ATOM     11  C19 UNL     1       2.251  41.440  39.660  0.00  0.00    +0.000 C 
ATOM     12  C20 UNL     1       2.023  41.562  41.120  0.00  0.00    +0.000 C 
ATOM     13  C21 UNL     1       2.388  40.344  42.040  0.00  0.00    +0.000 C 
ATOM     14  C22 UNL     1       1.523  40.439  43.294  0.00  0.00    +0.000 C 
ATOM     15  O3  UNL     1       1.542  39.538  44.121  0.00  0.00    +0.000 OA
ATOM     16  C23 UNL     1       0.654  41.647  43.545  0.00  0.00    +0.000 C 
ATOM     17  C24 UNL     1       1.430  42.927  43.210  0.00  0.00    +0.000 C 
ATOM     18  C25 UNL     1       1.890  42.977  41.732  0.00  0.00    +0.000 C 
ATOM     19  C26 UNL     1       3.857  40.592  42.489  0.00  0.00    +0.000 C 
ATOM     20  O5  UNL     1       0.958  41.337  40.227  0.00  0.00    +0.000 OA
ATOM     21  C27 UNL     1       4.681  36.936  39.229  0.00  0.00    +0.000 C 
ENDROOT
BRANCH   1  22
ATOM     22  C7  UNL     1       3.274  33.843  39.664  0.00  0.00    +0.000 C 
ATOM     23  C8  UNL     1       4.420  34.061  40.675  0.00  0.00    +0.000 C 
BRANCH  22  30
ATOM     24  C1  UNL     1       3.305  31.907  34.864  0.00  0.00    +0.000 C 
ATOM     25  C2  UNL     1       3.968  32.114  36.199  0.00  0.00    +0.000 C 
ATOM     26  C3  UNL     1       5.093  31.443  36.507  0.00  0.00    +0.000 C 
ATOM     27  C4  UNL     1       5.719  31.654  37.826  0.00  0.00    +0.000 C 
ATOM     28  O1  UNL     1       6.862  31.190  38.078  0.00  0.00    +0.000 OA
ATOM     29  O2  UNL     1       5.040  32.390  38.797  0.00  0.00    +0.000 OA
ATOM     30  C5  UNL     1       3.666  32.746  38.625  0.00  0.00    +0.000 C 
ATOM     31  C6  UNL     1       3.408  33.149  37.154  0.00  0.00    +0.000 C 
BRANCH  26  32
ATOM     32  O6  UNL     1       5.657  30.553  35.591  0.00  0.00    +0.000 OA
ATOM     33  H38 UNL     1       5.877  30.833  34.643  0.00  0.00    +0.000 HD
ENDBRANCH  26  32
ENDBRANCH  22  30
ENDBRANCH   1  22
BRANCH  18  34
ATOM     34  O4  UNL     1       3.121  43.645  41.628  0.00  0.00    +0.000 OA
ATOM     35  H31 UNL     1       3.717  43.253  42.318  0.00  0.00    +0.000 HD
ENDBRANCH  18  34
TORSDOF 4
ENDMDL
MODEL 8
REMARK VINA RESULT:      -3.8      2.428      3.787
REMARK  Name = .\Withaferin A.pdb
REMARK  8 active torsions:
REMARK  status: ('A' for Active; 'I' for Inactive)
REMARK    1  A    between atoms: C1_1  and  C2_2
REMARK    2  A    between atoms: C3_3  and  O6_33
REMARK    3  A    between atoms: C5_7  and  C7_9
REMARK    4  A    between atoms: C7_9  and  C8_10
REMARK    5  A    between atoms: C7_9  and  C9_11
REMARK    6  A    between atoms: C13_15  and  C27_32
REMARK    7  A    between atoms: C21_23  and  C26_30
REMARK    8  A    between atoms: C25_28  and  O4_29
REMARK                            x       y       z     vdW  Elec       q    Type
REMARK                         _______ _______ _______ _____ _____    ______ ____
ROOT
ATOM      1  C9  UNL     1       2.009  38.945  40.691  0.00  0.00    +0.000 C 
ATOM      2  C10 UNL     1       0.746  38.094  40.489  0.00  0.00    +0.000 C 
ATOM      3  C11 UNL     1       1.087  36.672  40.914  0.00  0.00    +0.000 C 
ATOM      4  C12 UNL     1       2.544  36.684  41.399  0.00  0.00    +0.000 C 
ATOM      5  C13 UNL     1       3.186  37.911  40.710  0.00  0.00    +0.000 C 
ATOM      6  C14 UNL     1       3.627  37.523  39.275  0.00  0.00    +0.000 C 
ATOM      7  C15 UNL     1       4.592  36.345  39.273  0.00  0.00    +0.000 C 
ATOM      8  C16 UNL     1       3.968  35.044  39.842  0.00  0.00    +0.000 C 
ATOM      9  C17 UNL     1       3.236  35.288  41.204  0.00  0.00    +0.000 C 
ATOM     10  C18 UNL     1       4.106  34.857  42.402  0.00  0.00    +0.000 C 
ATOM     11  C19 UNL     1       4.438  33.356  42.350  0.00  0.00    +0.000 C 
ATOM     12  C20 UNL     1       4.859  32.814  41.036  0.00  0.00    +0.000 C 
ATOM     13  C21 UNL     1       4.998  33.804  39.826  0.00  0.00    +0.000 C 
ATOM     14  C22 UNL     1       4.805  32.997  38.546  0.00  0.00    +0.000 C 
ATOM     15  O3  UNL     1       4.756  33.565  37.464  0.00  0.00    +0.000 OA
ATOM     16  C23 UNL     1       4.693  31.492  38.589  0.00  0.00    +0.000 C 
ATOM     17  C24 UNL     1       5.743  30.918  39.549  0.00  0.00    +0.000 C 
ATOM     18  C25 UNL     1       5.578  31.444  40.997  0.00  0.00    +0.000 C 
ATOM     19  C26 UNL     1       6.482  34.269  39.843  0.00  0.00    +0.000 C 
ATOM     20  O5  UNL     1       3.547  32.640  41.516  0.00  0.00    +0.000 OA
ATOM     21  C27 UNL     1       4.379  38.430  41.556  0.00  0.00    +0.000 C 
ENDROOT
BRANCH   1  22
ATOM     22  C7  UNL     1       2.085  40.143  39.674  0.00  0.00    +0.000 C 
ATOM     23  C8  UNL     1       2.600  39.704  38.287  0.00  0.00    +0.000 C 
BRANCH  22  30
ATOM     24  C1  UNL     1       3.357  43.529  43.376  0.00  0.00    +0.000 C 
ATOM     25  C2  UNL     1       3.736  42.655  42.213  0.00  0.00    +0.000 C 
ATOM     26  C3  UNL     1       4.959  42.759  41.658  0.00  0.00    +0.000 C 
ATOM     27  C4  UNL     1       5.305  41.899  40.511  0.00  0.00    +0.000 C 
ATOM     28  O1  UNL     1       6.489  41.836  40.087  0.00  0.00    +0.000 OA
ATOM     29  O2  UNL     1       4.309  41.136  39.902  0.00  0.00    +0.000 OA
ATOM     30  C5  UNL     1       2.929  41.341  40.213  0.00  0.00    +0.000 C 
ATOM     31  C6  UNL     1       2.765  41.597  41.730  0.00  0.00    +0.000 C 
BRANCH  26  32
ATOM     32  O6  UNL     1       5.886  43.676  42.160  0.00  0.00    +0.000 OA
ATOM     33  H38 UNL     1       5.638  44.341  42.882  0.00  0.00    +0.000 HD
ENDBRANCH  26  32
ENDBRANCH  22  30
ENDBRANCH   1  22
BRANCH  18  34
ATOM     34  O4  UNL     1       6.833  31.562  41.617  0.00  0.00    +0.000 OA
ATOM     35  H31 UNL     1       7.393  32.125  41.023  0.00  0.00    +0.000 HD
ENDBRANCH  18  34
TORSDOF 4
ENDMDL
