MODEL 1
REMARK VINA RESULT:      -6.6      0.000      0.000
REMARK  Name = .\Withaferin A.pdb
REMARK  8 active torsions:
REMARK  status: ('A' for Active; 'I' for Inactive)
REMARK    1  A    between atoms: C1_1  and  C2_2
REMARK    2  A    between atoms: C3_3  and  O6_33
REMARK    3  A    between atoms: C5_7  and  C7_9
REMARK    4  A    between atoms: C7_9  and  C8_10
REMARK    5  A    between atoms: C7_9  and  C9_11
REMARK    6  A    between atoms: C13_15  and  C27_32
REMARK    7  A    between atoms: C21_23  and  C26_30
REMARK    8  A    between atoms: C25_28  and  O4_29
REMARK                            x       y       z     vdW  Elec       q    Type
REMARK                         _______ _______ _______ _____ _____    ______ ____
ROOT
ATOM      1  C9  UNL     1     -19.602  52.829 -35.681  0.00  0.00    +0.000 C 
ATOM      2  C10 UNL     1     -20.600  52.265 -34.658  0.00  0.00    +0.000 C 
ATOM      3  C11 UNL     1     -20.152  50.849 -34.324  0.00  0.00    +0.000 C 
ATOM      4  C12 UNL     1     -18.869  50.582 -35.125  0.00  0.00    +0.000 C 
ATOM      5  C13 UNL     1     -18.928  51.566 -36.316  0.00  0.00    +0.000 C 
ATOM      6  C14 UNL     1     -19.803  50.959 -37.443  0.00  0.00    +0.000 C 
ATOM      7  C15 UNL     1     -19.286  49.601 -37.899  0.00  0.00    +0.000 C 
ATOM      8  C16 UNL     1     -19.315  48.529 -36.778  0.00  0.00    +0.000 C 
ATOM      9  C17 UNL     1     -18.686  49.054 -35.443  0.00  0.00    +0.000 C 
ATOM     10  C18 UNL     1     -17.240  48.554 -35.260  0.00  0.00    +0.000 C 
ATOM     11  C19 UNL     1     -17.176  47.019 -35.195  0.00  0.00    +0.000 C 
ATOM     12  C20 UNL     1     -17.979  46.278 -36.197  0.00  0.00    +0.000 C 
ATOM     13  C21 UNL     1     -18.772  47.095 -37.276  0.00  0.00    +0.000 C 
ATOM     14  C22 UNL     1     -19.947  46.236 -37.733  0.00  0.00    +0.000 C 
ATOM     15  O3  UNL     1     -20.785  46.699 -38.495  0.00  0.00    +0.000 OA
ATOM     16  C23 UNL     1     -20.084  44.805 -37.275  0.00  0.00    +0.000 C 
ATOM     17  C24 UNL     1     -18.722  44.103 -37.341  0.00  0.00    +0.000 C 
ATOM     18  C25 UNL     1     -17.656  44.784 -36.446  0.00  0.00    +0.000 C 
ATOM     19  C26 UNL     1     -17.808  47.218 -38.490  0.00  0.00    +0.000 C 
ATOM     20  O5  UNL     1     -18.429  46.444 -34.873  0.00  0.00    +0.000 OA
ATOM     21  C27 UNL     1     -17.492  51.883 -36.812  0.00  0.00    +0.000 C 
ENDROOT
BRANCH   1  22
ATOM     22  C7  UNL     1     -20.269  53.882 -36.642  0.00  0.00    +0.000 C 
ATOM     23  C8  UNL     1     -19.633  53.879 -38.048  0.00  0.00    +0.000 C 
BRANCH  22  30
ATOM     24  C1  UNL     1     -22.423  58.542 -35.988  0.00  0.00    +0.000 C 
ATOM     25  C2  UNL     1     -21.601  57.394 -35.471  0.00  0.00    +0.000 C 
ATOM     26  C3  UNL     1     -20.923  57.513 -34.314  0.00  0.00    +0.000 C 
ATOM     27  C4  UNL     1     -20.115  56.378 -33.832  0.00  0.00    +0.000 C 
ATOM     28  O1  UNL     1     -19.620  56.384 -32.674  0.00  0.00    +0.000 OA
ATOM     29  O2  UNL     1     -19.912  55.278 -34.666  0.00  0.00    +0.000 OA
ATOM     30  C5  UNL     1     -20.272  55.326 -36.049  0.00  0.00    +0.000 C 
ATOM     31  C6  UNL     1     -21.615  56.075 -36.216  0.00  0.00    +0.000 C 
BRANCH  26  32
ATOM     32  O6  UNL     1     -20.979  58.702 -33.583  0.00  0.00    +0.000 OA
ATOM     33  H38 UNL     1     -20.146  59.236 -33.371  0.00  0.00    +0.000 HD
ENDBRANCH  26  32
ENDBRANCH  22  30
ENDBRANCH   1  22
BRANCH  18  34
ATOM     34  O4  UNL     1     -16.386  44.677 -37.035  0.00  0.00    +0.000 OA
ATOM     35  H31 UNL     1     -15.722  44.831 -36.314  0.00  0.00    +0.000 HD
ENDBRANCH  18  34
TORSDOF 4
ENDMDL
MODEL 2
REMARK VINA RESULT:      -6.3      1.549      9.575
REMARK  Name = .\Withaferin A.pdb
REMARK  8 active torsions:
REMARK  status: ('A' for Active; 'I' for Inactive)
REMARK    1  A    between atoms: C1_1  and  C2_2
REMARK    2  A    between atoms: C3_3  and  O6_33
REMARK    3  A    between atoms: C5_7  and  C7_9
REMARK    4  A    between atoms: C7_9  and  C8_10
REMARK    5  A    between atoms: C7_9  and  C9_11
REMARK    6  A    between atoms: C13_15  and  C27_32
REMARK    7  A    between atoms: C21_23  and  C26_30
REMARK    8  A    between atoms: C25_28  and  O4_29
REMARK                            x       y       z     vdW  Elec       q    Type
REMARK                         _______ _______ _______ _____ _____    ______ ____
ROOT
ATOM      1  C9  UNL     1     -18.052  49.822 -36.806  0.00  0.00    +0.000 C 
ATOM      2  C10 UNL     1     -18.748  49.882 -38.175  0.00  0.00    +0.000 C 
ATOM      3  C11 UNL     1     -18.989  51.350 -38.495  0.00  0.00    +0.000 C 
ATOM      4  C12 UNL     1     -18.407  52.166 -37.332  0.00  0.00    +0.000 C 
ATOM      5  C13 UNL     1     -18.390  51.193 -36.129  0.00  0.00    +0.000 C 
ATOM      6  C14 UNL     1     -19.790  51.172 -35.464  0.00  0.00    +0.000 C 
ATOM      7  C15 UNL     1     -20.234  52.559 -35.020  0.00  0.00    +0.000 C 
ATOM      8  C16 UNL     1     -20.389  53.556 -36.198  0.00  0.00    +0.000 C 
ATOM      9  C17 UNL     1     -19.149  53.540 -37.153  0.00  0.00    +0.000 C 
ATOM     10  C18 UNL     1     -18.199  54.722 -36.872  0.00  0.00    +0.000 C 
ATOM     11  C19 UNL     1     -18.898  56.074 -37.092  0.00  0.00    +0.000 C 
ATOM     12  C20 UNL     1     -20.265  56.213 -36.534  0.00  0.00    +0.000 C 
ATOM     13  C21 UNL     1     -20.866  55.018 -35.714  0.00  0.00    +0.000 C 
ATOM     14  C22 UNL     1     -22.386  55.115 -35.807  0.00  0.00    +0.000 C 
ATOM     15  O3  UNL     1     -23.087  54.227 -35.340  0.00  0.00    +0.000 OA
ATOM     16  C23 UNL     1     -23.048  56.309 -36.450  0.00  0.00    +0.000 C 
ATOM     17  C24 UNL     1     -22.357  57.599 -35.993  0.00  0.00    +0.000 C 
ATOM     18  C25 UNL     1     -20.853  57.636 -36.366  0.00  0.00    +0.000 C 
ATOM     19  C26 UNL     1     -20.488  55.302 -34.233  0.00  0.00    +0.000 C 
ATOM     20  O5  UNL     1     -20.054  55.953 -37.902  0.00  0.00    +0.000 OA
ATOM     21  C27 UNL     1     -17.283  51.613 -35.125  0.00  0.00    +0.000 C 
ENDROOT
BRANCH   1  22
ATOM     22  C7  UNL     1     -18.394  48.499 -36.025  0.00  0.00    +0.000 C 
ATOM     23  C8  UNL     1     -17.496  48.301 -34.786  0.00  0.00    +0.000 C 
BRANCH  22  30
ATOM     24  C1  UNL     1     -16.432  43.899 -37.356  0.00  0.00    +0.000 C 
ATOM     25  C2  UNL     1     -17.598  44.840 -37.232  0.00  0.00    +0.000 C 
ATOM     26  C3  UNL     1     -18.782  44.530 -37.795  0.00  0.00    +0.000 C 
ATOM     27  C4  UNL     1     -19.909  45.473 -37.669  0.00  0.00    +0.000 C 
ATOM     28  O1  UNL     1     -21.071  45.139 -38.019  0.00  0.00    +0.000 OA
ATOM     29  O2  UNL     1     -19.682  46.745 -37.140  0.00  0.00    +0.000 OA
ATOM     30  C5  UNL     1     -18.354  47.232 -36.935  0.00  0.00    +0.000 C 
ATOM     31  C6  UNL     1     -17.456  46.094 -36.393  0.00  0.00    +0.000 C 
BRANCH  26  32
ATOM     32  O6  UNL     1     -18.937  43.332 -38.495  0.00  0.00    +0.000 OA
ATOM     33  H38 UNL     1     -18.639  42.446 -38.107  0.00  0.00    +0.000 HD
ENDBRANCH  26  32
ENDBRANCH  22  30
ENDBRANCH   1  22
BRANCH  18  34
ATOM     34  O4  UNL     1     -20.125  58.326 -35.384  0.00  0.00    +0.000 OA
ATOM     35  H31 UNL     1     -19.195  58.406 -35.721  0.00  0.00    +0.000 HD
ENDBRANCH  18  34
TORSDOF 4
ENDMDL
MODEL 3
REMARK VINA RESULT:      -6.2      1.708      9.546
REMARK  Name = .\Withaferin A.pdb
REMARK  8 active torsions:
REMARK  status: ('A' for Active; 'I' for Inactive)
REMARK    1  A    between atoms: C1_1  and  C2_2
REMARK    2  A    between atoms: C3_3  and  O6_33
REMARK    3  A    between atoms: C5_7  and  C7_9
REMARK    4  A    between atoms: C7_9  and  C8_10
REMARK    5  A    between atoms: C7_9  and  C9_11
REMARK    6  A    between atoms: C13_15  and  C27_32
REMARK    7  A    between atoms: C21_23  and  C26_30
REMARK    8  A    between atoms: C25_28  and  O4_29
REMARK                            x       y       z     vdW  Elec       q    Type
REMARK                         _______ _______ _______ _____ _____    ______ ____
ROOT
ATOM      1  C9  UNL     1     -19.441  49.947 -36.320  0.00  0.00    +0.000 C 
ATOM      2  C10 UNL     1     -18.209  50.323 -35.481  0.00  0.00    +0.000 C 
ATOM      3  C11 UNL     1     -18.478  51.692 -34.872  0.00  0.00    +0.000 C 
ATOM      4  C12 UNL     1     -19.884  52.116 -35.322  0.00  0.00    +0.000 C 
ATOM      5  C13 UNL     1     -20.151  51.311 -36.616  0.00  0.00    +0.000 C 
ATOM      6  C14 UNL     1     -19.503  52.042 -37.820  0.00  0.00    +0.000 C 
ATOM      7  C15 UNL     1     -20.014  53.469 -37.965  0.00  0.00    +0.000 C 
ATOM      8  C16 UNL     1     -19.672  54.367 -36.748  0.00  0.00    +0.000 C 
ATOM      9  C17 UNL     1     -20.029  53.679 -35.388  0.00  0.00    +0.000 C 
ATOM     10  C18 UNL     1     -21.365  54.200 -34.821  0.00  0.00    +0.000 C 
ATOM     11  C19 UNL     1     -21.311  55.711 -34.542  0.00  0.00    +0.000 C 
ATOM     12  C20 UNL     1     -20.696  56.559 -35.592  0.00  0.00    +0.000 C 
ATOM     13  C21 UNL     1     -20.212  55.876 -36.920  0.00  0.00    +0.000 C 
ATOM     14  C22 UNL     1     -19.110  56.749 -37.511  0.00  0.00    +0.000 C 
ATOM     15  O3  UNL     1     -18.490  56.371 -38.495  0.00  0.00    +0.000 OA
ATOM     16  C23 UNL     1     -18.782  58.094 -36.911  0.00  0.00    +0.000 C 
ATOM     17  C24 UNL     1     -20.076  58.846 -36.576  0.00  0.00    +0.000 C 
ATOM     18  C25 UNL     1     -20.965  58.083 -35.563  0.00  0.00    +0.000 C 
ATOM     19  C26 UNL     1     -21.423  55.963 -37.892  0.00  0.00    +0.000 C 
ATOM     20  O5  UNL     1     -19.982  56.189 -34.436  0.00  0.00    +0.000 OA
ATOM     21  C27 UNL     1     -21.678  51.120 -36.814  0.00  0.00    +0.000 C 
ENDROOT
BRANCH   1  22
ATOM     22  C7  UNL     1     -19.069  49.020 -37.536  0.00  0.00    +0.000 C 
ATOM     23  C8  UNL     1     -20.315  48.392 -38.197  0.00  0.00    +0.000 C 
BRANCH  22  30
ATOM     24  C1  UNL     1     -16.507  46.164 -34.063  0.00  0.00    +0.000 C 
ATOM     25  C2  UNL     1     -17.164  46.315 -35.407  0.00  0.00    +0.000 C 
ATOM     26  C3  UNL     1     -17.018  45.359 -36.343  0.00  0.00    +0.000 C 
ATOM     27  C4  UNL     1     -17.662  45.533 -37.658  0.00  0.00    +0.000 C 
ATOM     28  O1  UNL     1     -17.702  44.586 -38.487  0.00  0.00    +0.000 OA
ATOM     29  O2  UNL     1     -18.248  46.759 -37.977  0.00  0.00    +0.000 OA
ATOM     30  C5  UNL     1     -18.037  47.911 -37.158  0.00  0.00    +0.000 C 
ATOM     31  C6  UNL     1     -18.064  47.506 -35.665  0.00  0.00    +0.000 C 
BRANCH  26  32
ATOM     32  O6  UNL     1     -16.258  44.218 -36.074  0.00  0.00    +0.000 OA
ATOM     33  H38 UNL     1     -15.906  44.020 -35.145  0.00  0.00    +0.000 HD
ENDBRANCH  26  32
ENDBRANCH  22  30
ENDBRANCH   1  22
BRANCH  18  34
ATOM     34  O4  UNL     1     -22.322  58.319 -35.833  0.00  0.00    +0.000 OA
ATOM     35  H31 UNL     1     -22.542  59.204 -35.441  0.00  0.00    +0.000 HD
ENDBRANCH  18  34
TORSDOF 4
ENDMDL
MODEL 4
REMARK VINA RESULT:      -5.6      2.789      9.566
REMARK  Name = .\Withaferin A.pdb
REMARK  8 active torsions:
REMARK  status: ('A' for Active; 'I' for Inactive)
REMARK    1  A    between atoms: C1_1  and  C2_2
REMARK    2  A    between atoms: C3_3  and  O6_33
REMARK    3  A    between atoms: C5_7  and  C7_9
REMARK    4  A    between atoms: C7_9  and  C8_10
REMARK    5  A    between atoms: C7_9  and  C9_11
REMARK    6  A    between atoms: C13_15  and  C27_32
REMARK    7  A    between atoms: C21_23  and  C26_30
REMARK    8  A    between atoms: C25_28  and  O4_29
REMARK                            x       y       z     vdW  Elec       q    Type
REMARK                         _______ _______ _______ _____ _____    ______ ____
ROOT
ATOM      1  C9  UNL     1     -22.337  53.044 -34.295  0.00  0.00    +0.000 C 
ATOM      2  C10 UNL     1     -21.130  53.238 -33.363  0.00  0.00    +0.000 C 
ATOM      3  C11 UNL     1     -20.753  54.712 -33.414  0.00  0.00    +0.000 C 
ATOM      4  C12 UNL     1     -21.757  55.401 -34.351  0.00  0.00    +0.000 C 
ATOM      5  C13 UNL     1     -22.292  54.273 -35.264  0.00  0.00    +0.000 C 
ATOM      6  C14 UNL     1     -21.300  54.042 -36.433  0.00  0.00    +0.000 C 
ATOM      7  C15 UNL     1     -21.061  55.312 -37.239  0.00  0.00    +0.000 C 
ATOM      8  C16 UNL     1     -20.410  56.449 -36.409  0.00  0.00    +0.000 C 
ATOM      9  C17 UNL     1     -21.136  56.670 -35.039  0.00  0.00    +0.000 C 
ATOM     10  C18 UNL     1     -22.097  57.875 -35.093  0.00  0.00    +0.000 C 
ATOM     11  C19 UNL     1     -21.348  59.182 -35.403  0.00  0.00    +0.000 C 
ATOM     12  C20 UNL     1     -20.339  59.128 -36.488  0.00  0.00    +0.000 C 
ATOM     13  C21 UNL     1     -20.156  57.784 -37.276  0.00  0.00    +0.000 C 
ATOM     14  C22 UNL     1     -18.736  57.767 -37.834  0.00  0.00    +0.000 C 
ATOM     15  O3  UNL     1     -18.310  56.768 -38.397  0.00  0.00    +0.000 OA
ATOM     16  C23 UNL     1     -17.847  58.981 -37.723  0.00  0.00    +0.000 C 
ATOM     17  C24 UNL     1     -18.645  60.246 -38.059  0.00  0.00    +0.000 C 
ATOM     18  C25 UNL     1     -19.853  60.459 -37.111  0.00  0.00    +0.000 C 
ATOM     19  C26 UNL     1     -21.116  57.887 -38.495  0.00  0.00    +0.000 C 
ATOM     20  O5  UNL     1     -19.962  59.082 -35.132  0.00  0.00    +0.000 OA
ATOM     21  C27 UNL     1     -23.711  54.637 -35.778  0.00  0.00    +0.000 C 
ENDROOT
BRANCH   1  22
ATOM     22  C7  UNL     1     -22.375  51.601 -34.922  0.00  0.00    +0.000 C 
ATOM     23  C8  UNL     1     -22.570  50.503 -33.855  0.00  0.00    +0.000 C 
BRANCH  22  30
ATOM     24  C1  UNL     1     -17.340  50.541 -35.477  0.00  0.00    +0.000 C 
ATOM     25  C2  UNL     1     -18.769  50.382 -35.917  0.00  0.00    +0.000 C 
ATOM     26  C3  UNL     1     -19.054  49.775 -37.085  0.00  0.00    +0.000 C 
ATOM     27  C4  UNL     1     -20.462  49.640 -37.501  0.00  0.00    +0.000 C 
ATOM     28  O1  UNL     1     -20.777  48.923 -38.487  0.00  0.00    +0.000 OA
ATOM     29  O2  UNL     1     -21.457  50.305 -36.782  0.00  0.00    +0.000 OA
ATOM     30  C5  UNL     1     -21.123  51.289 -35.800  0.00  0.00    +0.000 C 
ATOM     31  C6  UNL     1     -19.885  50.829 -34.995  0.00  0.00    +0.000 C 
BRANCH  26  32
ATOM     32  O6  UNL     1     -18.027  49.286 -37.895  0.00  0.00    +0.000 OA
ATOM     33  H38 UNL     1     -17.063  49.563 -37.757  0.00  0.00    +0.000 HD
ENDBRANCH  26  32
ENDBRANCH  22  30
ENDBRANCH   1  22
BRANCH  18  34
ATOM     34  O4  UNL     1     -20.914  61.062 -37.805  0.00  0.00    +0.000 OA
ATOM     35  H31 UNL     1     -21.489  61.499 -37.124  0.00  0.00    +0.000 HD
ENDBRANCH  18  34
TORSDOF 4
ENDMDL
MODEL 5
REMARK VINA RESULT:      -5.6      4.120      7.327
REMARK  Name = .\Withaferin A.pdb
REMARK  8 active torsions:
REMARK  status: ('A' for Active; 'I' for Inactive)
REMARK    1  A    between atoms: C1_1  and  C2_2
REMARK    2  A    between atoms: C3_3  and  O6_33
REMARK    3  A    between atoms: C5_7  and  C7_9
REMARK    4  A    between atoms: C7_9  and  C8_10
REMARK    5  A    between atoms: C7_9  and  C9_11
REMARK    6  A    between atoms: C13_15  and  C27_32
REMARK    7  A    between atoms: C21_23  and  C26_30
REMARK    8  A    between atoms: C25_28  and  O4_29
REMARK                            x       y       z     vdW  Elec       q    Type
REMARK                         _______ _______ _______ _____ _____    ______ ____
ROOT
ATOM      1  C9  UNL     1     -21.947  58.879 -38.275  0.00  0.00    +0.000 C 
ATOM      2  C10 UNL     1     -20.436  58.698 -38.494  0.00  0.00    +0.000 C 
ATOM      3  C11 UNL     1     -20.157  57.202 -38.495  0.00  0.00    +0.000 C 
ATOM      4  C12 UNL     1     -21.506  56.491 -38.310  0.00  0.00    +0.000 C 
ATOM      5  C13 UNL     1     -22.417  57.535 -37.623  0.00  0.00    +0.000 C 
ATOM      6  C14 UNL     1     -22.156  57.520 -36.095  0.00  0.00    +0.000 C 
ATOM      7  C15 UNL     1     -22.377  56.140 -35.491  0.00  0.00    +0.000 C 
ATOM      8  C16 UNL     1     -21.409  55.066 -36.051  0.00  0.00    +0.000 C 
ATOM      9  C17 UNL     1     -21.339  55.092 -37.615  0.00  0.00    +0.000 C 
ATOM     10  C18 UNL     1     -22.208  53.984 -38.242  0.00  0.00    +0.000 C 
ATOM     11  C19 UNL     1     -21.738  52.585 -37.810  0.00  0.00    +0.000 C 
ATOM     12  C20 UNL     1     -21.422  52.404 -36.372  0.00  0.00    +0.000 C 
ATOM     13  C21 UNL     1     -21.649  53.612 -35.397  0.00  0.00    +0.000 C 
ATOM     14  C22 UNL     1     -20.711  53.426 -34.208  0.00  0.00    +0.000 C 
ATOM     15  O3  UNL     1     -20.618  54.301 -33.358  0.00  0.00    +0.000 OA
ATOM     16  C23 UNL     1     -19.905  52.161 -34.049  0.00  0.00    +0.000 C 
ATOM     17  C24 UNL     1     -20.779  50.941 -34.364  0.00  0.00    +0.000 C 
ATOM     18  C25 UNL     1     -21.338  50.964 -35.809  0.00  0.00    +0.000 C 
ATOM     19  C26 UNL     1     -23.097  53.440 -34.857  0.00  0.00    +0.000 C 
ATOM     20  O5  UNL     1     -20.406  52.592 -37.329  0.00  0.00    +0.000 OA
ATOM     21  C27 UNL     1     -23.905  57.239 -37.955  0.00  0.00    +0.000 C 
ENDROOT
BRANCH   1  22
ATOM     22  C7  UNL     1     -22.280  60.226 -37.532  0.00  0.00    +0.000 C 
ATOM     23  C8  UNL     1     -23.599  60.857 -38.027  0.00  0.00    +0.000 C 
BRANCH  22  30
ATOM     24  C1  UNL     1     -20.490  65.082 -37.525  0.00  0.00    +0.000 C 
ATOM     25  C2  UNL     1     -20.331  63.626 -37.184  0.00  0.00    +0.000 C 
ATOM     26  C3  UNL     1     -19.148  63.158 -36.744  0.00  0.00    +0.000 C 
ATOM     27  C4  UNL     1     -19.012  61.725 -36.426  0.00  0.00    +0.000 C 
ATOM     28  O1  UNL     1     -17.986  61.288 -35.842  0.00  0.00    +0.000 OA
ATOM     29  O2  UNL     1     -20.043  60.847 -36.764  0.00  0.00    +0.000 OA
ATOM     30  C5  UNL     1     -21.117  61.264 -37.611  0.00  0.00    +0.000 C 
ATOM     31  C6  UNL     1     -21.536  62.710 -37.254  0.00  0.00    +0.000 C 
BRANCH  26  32
ATOM     32  O6  UNL     1     -18.059  64.021 -36.597  0.00  0.00    +0.000 OA
ATOM     33  H38 UNL     1     -17.150  63.800 -36.984  0.00  0.00    +0.000 HD
ENDBRANCH  26  32
ENDBRANCH  22  30
ENDBRANCH   1  22
BRANCH  18  34
ATOM     34  O4  UNL     1     -22.612  50.377 -35.847  0.00  0.00    +0.000 OA
ATOM     35  H31 UNL     1     -22.957  50.380 -34.916  0.00  0.00    +0.000 HD
ENDBRANCH  18  34
TORSDOF 4
ENDMDL
MODEL 6
REMARK VINA RESULT:      -5.4      1.867      9.738
REMARK  Name = .\Withaferin A.pdb
REMARK  8 active torsions:
REMARK  status: ('A' for Active; 'I' for Inactive)
REMARK    1  A    between atoms: C1_1  and  C2_2
REMARK    2  A    between atoms: C3_3  and  O6_33
REMARK    3  A    between atoms: C5_7  and  C7_9
REMARK    4  A    between atoms: C7_9  and  C8_10
REMARK    5  A    between atoms: C7_9  and  C9_11
REMARK    6  A    between atoms: C13_15  and  C27_32
REMARK    7  A    between atoms: C21_23  and  C26_30
REMARK    8  A    between atoms: C25_28  and  O4_29
REMARK                            x       y       z     vdW  Elec       q    Type
REMARK                         _______ _______ _______ _____ _____    ______ ____
ROOT
ATOM      1  C9  UNL     1     -19.812  51.207 -36.112  0.00  0.00    +0.000 C 
ATOM      2  C10 UNL     1     -19.166  51.592 -34.771  0.00  0.00    +0.000 C 
ATOM      3  C11 UNL     1     -19.708  52.961 -34.386  0.00  0.00    +0.000 C 
ATOM      4  C12 UNL     1     -20.701  53.377 -35.481  0.00  0.00    +0.000 C 
ATOM      5  C13 UNL     1     -20.283  52.567 -36.730  0.00  0.00    +0.000 C 
ATOM      6  C14 UNL     1     -19.121  53.298 -37.452  0.00  0.00    +0.000 C 
ATOM      7  C15 UNL     1     -19.496  54.721 -37.841  0.00  0.00    +0.000 C 
ATOM      8  C16 UNL     1     -19.811  55.625 -36.621  0.00  0.00    +0.000 C 
ATOM      9  C17 UNL     1     -20.799  54.939 -35.618  0.00  0.00    +0.000 C 
ATOM     10  C18 UNL     1     -22.241  55.454 -35.799  0.00  0.00    +0.000 C 
ATOM     11  C19 UNL     1     -22.339  56.967 -35.538  0.00  0.00    +0.000 C 
ATOM     12  C20 UNL     1     -21.283  57.815 -36.144  0.00  0.00    +0.000 C 
ATOM     13  C21 UNL     1     -20.198  57.131 -37.047  0.00  0.00    +0.000 C 
ATOM     14  C22 UNL     1     -18.950  58.008 -37.012  0.00  0.00    +0.000 C 
ATOM     15  O3  UNL     1     -17.920  57.630 -37.552  0.00  0.00    +0.000 OA
ATOM     16  C23 UNL     1     -18.971  59.356 -36.335  0.00  0.00    +0.000 C 
ATOM     17  C24 UNL     1     -20.261  60.103 -36.697  0.00  0.00    +0.000 C 
ATOM     18  C25 UNL     1     -21.536  59.338 -36.261  0.00  0.00    +0.000 C 
ATOM     19  C26 UNL     1     -20.760  57.208 -38.495  0.00  0.00    +0.000 C 
ATOM     20  O5  UNL     1     -21.243  57.451 -34.784  0.00  0.00    +0.000 OA
ATOM     21  C27 UNL     1     -21.505  52.367 -37.666  0.00  0.00    +0.000 C 
ENDROOT
BRANCH   1  22
ATOM     22  C7  UNL     1     -18.879  50.278 -36.974  0.00  0.00    +0.000 C 
ATOM     23  C8  UNL     1     -19.257  50.293 -38.470  0.00  0.00    +0.000 C 
BRANCH  22  30
ATOM     24  C1  UNL     1     -18.865  45.155 -37.705  0.00  0.00    +0.000 C 
ATOM     25  C2  UNL     1     -18.417  46.371 -36.943  0.00  0.00    +0.000 C 
ATOM     26  C3  UNL     1     -17.761  46.235 -35.775  0.00  0.00    +0.000 C 
ATOM     27  C4  UNL     1     -17.340  47.442 -35.040  0.00  0.00    +0.000 C 
ATOM     28  O1  UNL     1     -16.570  47.357 -34.047  0.00  0.00    +0.000 OA
ATOM     29  O2  UNL     1     -17.791  48.694 -35.462  0.00  0.00    +0.000 OA
ATOM     30  C5  UNL     1     -18.826  48.812 -36.441  0.00  0.00    +0.000 C 
ATOM     31  C6  UNL     1     -18.630  47.746 -37.544  0.00  0.00    +0.000 C 
BRANCH  26  32
ATOM     32  O6  UNL     1     -17.488  44.965 -35.263  0.00  0.00    +0.000 OA
ATOM     33  H38 UNL     1     -17.454  44.147 -35.859  0.00  0.00    +0.000 HD
ENDBRANCH  26  32
ENDBRANCH  22  30
ENDBRANCH   1  22
BRANCH  18  34
ATOM     34  O4  UNL     1     -22.576  59.566 -37.176  0.00  0.00    +0.000 OA
ATOM     35  H31 UNL     1     -22.554  58.816 -37.826  0.00  0.00    +0.000 HD
ENDBRANCH  18  34
TORSDOF 4
ENDMDL
MODEL 7
REMARK VINA RESULT:      -4.8      4.020      7.043
REMARK  Name = .\Withaferin A.pdb
REMARK  8 active torsions:
REMARK  status: ('A' for Active; 'I' for Inactive)
REMARK    1  A    between atoms: C1_1  and  C2_2
REMARK    2  A    between atoms: C3_3  and  O6_33
REMARK    3  A    between atoms: C5_7  and  C7_9
REMARK    4  A    between atoms: C7_9  and  C8_10
REMARK    5  A    between atoms: C7_9  and  C9_11
REMARK    6  A    between atoms: C13_15  and  C27_32
REMARK    7  A    between atoms: C21_23  and  C26_30
REMARK    8  A    between atoms: C25_28  and  O4_29
REMARK                            x       y       z     vdW  Elec       q    Type
REMARK                         _______ _______ _______ _____ _____    ______ ____
ROOT
ATOM      1  C9  UNL     1     -21.017  59.001 -36.023  0.00  0.00    +0.000 C 
ATOM      2  C10 UNL     1     -21.875  58.908 -37.294  0.00  0.00    +0.000 C 
ATOM      3  C11 UNL     1     -22.591  57.565 -37.257  0.00  0.00    +0.000 C 
ATOM      4  C12 UNL     1     -22.184  56.873 -35.948  0.00  0.00    +0.000 C 
ATOM      5  C13 UNL     1     -20.832  57.517 -35.558  0.00  0.00    +0.000 C 
ATOM      6  C14 UNL     1     -19.685  56.816 -36.331  0.00  0.00    +0.000 C 
ATOM      7  C15 UNL     1     -19.655  55.316 -36.071  0.00  0.00    +0.000 C 
ATOM      8  C16 UNL     1     -20.937  54.587 -36.552  0.00  0.00    +0.000 C 
ATOM      9  C17 UNL     1     -22.241  55.308 -36.072  0.00  0.00    +0.000 C 
ATOM     10  C18 UNL     1     -22.855  54.613 -34.839  0.00  0.00    +0.000 C 
ATOM     11  C19 UNL     1     -23.251  53.160 -35.148  0.00  0.00    +0.000 C 
ATOM     12  C20 UNL     1     -22.268  52.350 -35.907  0.00  0.00    +0.000 C 
ATOM     13  C21 UNL     1     -20.888  52.999 -36.277  0.00  0.00    +0.000 C 
ATOM     14  C22 UNL     1     -20.361  52.283 -37.518  0.00  0.00    +0.000 C 
ATOM     15  O3  UNL     1     -19.346  52.683 -38.072  0.00  0.00    +0.000 OA
ATOM     16  C23 UNL     1     -21.063  51.065 -38.065  0.00  0.00    +0.000 C 
ATOM     17  C24 UNL     1     -21.462  50.131 -36.915  0.00  0.00    +0.000 C 
ATOM     18  C25 UNL     1     -22.417  50.809 -35.901  0.00  0.00    +0.000 C 
ATOM     19  C26 UNL     1     -19.932  52.632 -35.107  0.00  0.00    +0.000 C 
ATOM     20  O5  UNL     1     -23.387  52.925 -36.538  0.00  0.00    +0.000 OA
ATOM     21  C27 UNL     1     -20.627  57.429 -34.022  0.00  0.00    +0.000 C 
ENDROOT
BRANCH   1  22
ATOM     22  C7  UNL     1     -19.730  59.880 -36.241  0.00  0.00    +0.000 C 
ATOM     23  C8  UNL     1     -19.079  60.308 -34.909  0.00  0.00    +0.000 C 
BRANCH  22  30
ATOM     24  C1  UNL     1     -22.900  63.323 -38.450  0.00  0.00    +0.000 C 
ATOM     25  C2  UNL     1     -21.580  62.972 -37.822  0.00  0.00    +0.000 C 
ATOM     26  C3  UNL     1     -20.555  63.844 -37.868  0.00  0.00    +0.000 C 
ATOM     27  C4  UNL     1     -19.265  63.473 -37.255  0.00  0.00    +0.000 C 
ATOM     28  O1  UNL     1     -18.349  64.325 -37.117  0.00  0.00    +0.000 OA
ATOM     29  O2  UNL     1     -19.069  62.165 -36.811  0.00  0.00    +0.000 OA
ATOM     30  C5  UNL     1     -19.995  61.127 -37.142  0.00  0.00    +0.000 C 
ATOM     31  C6  UNL     1     -21.442  61.669 -37.061  0.00  0.00    +0.000 C 
BRANCH  26  32
ATOM     32  O6  UNL     1     -20.709  65.082 -38.495  0.00  0.00    +0.000 OA
ATOM     33  H38 UNL     1     -21.592  65.365 -38.904  0.00  0.00    +0.000 HD
ENDBRANCH  26  32
ENDBRANCH  22  30
ENDBRANCH   1  22
BRANCH  18  34
ATOM     34  O4  UNL     1     -22.174  50.325 -34.606  0.00  0.00    +0.000 OA
ATOM     35  H31 UNL     1     -22.646  49.455 -34.532  0.00  0.00    +0.000 HD
ENDBRANCH  18  34
TORSDOF 4
ENDMDL
MODEL 8
REMARK VINA RESULT:      -4.6      2.016      9.547
REMARK  Name = .\Withaferin A.pdb
REMARK  8 active torsions:
REMARK  status: ('A' for Active; 'I' for Inactive)
REMARK    1  A    between atoms: C1_1  and  C2_2
REMARK    2  A    between atoms: C3_3  and  O6_33
REMARK    3  A    between atoms: C5_7  and  C7_9
REMARK    4  A    between atoms: C7_9  and  C8_10
REMARK    5  A    between atoms: C7_9  and  C9_11
REMARK    6  A    between atoms: C13_15  and  C27_32
REMARK    7  A    between atoms: C21_23  and  C26_30
REMARK    8  A    between atoms: C25_28  and  O4_29
REMARK                            x       y       z     vdW  Elec       q    Type
REMARK                         _______ _______ _______ _____ _____    ______ ____
ROOT
ATOM      1  C9  UNL     1     -19.582  50.447 -36.267  0.00  0.00    +0.000 C 
ATOM      2  C10 UNL     1     -20.013  50.615 -34.801  0.00  0.00    +0.000 C 
ATOM      3  C11 UNL     1     -21.176  51.597 -34.783  0.00  0.00    +0.000 C 
ATOM      4  C12 UNL     1     -21.458  51.988 -36.241  0.00  0.00    +0.000 C 
ATOM      5  C13 UNL     1     -20.132  51.722 -36.991  0.00  0.00    +0.000 C 
ATOM      6  C14 UNL     1     -19.184  52.935 -36.808  0.00  0.00    +0.000 C 
ATOM      7  C15 UNL     1     -19.818  54.233 -37.291  0.00  0.00    +0.000 C 
ATOM      8  C16 UNL     1     -21.091  54.623 -36.496  0.00  0.00    +0.000 C 
ATOM      9  C17 UNL     1     -22.086  53.424 -36.350  0.00  0.00    +0.000 C 
ATOM     10  C18 UNL     1     -23.242  53.517 -37.366  0.00  0.00    +0.000 C 
ATOM     11  C19 UNL     1     -24.071  54.797 -37.164  0.00  0.00    +0.000 C 
ATOM     12  C20 UNL     1     -23.313  56.053 -36.951  0.00  0.00    +0.000 C 
ATOM     13  C21 UNL     1     -21.746  56.003 -37.013  0.00  0.00    +0.000 C 
ATOM     14  C22 UNL     1     -21.215  57.164 -36.177  0.00  0.00    +0.000 C 
ATOM     15  O3  UNL     1     -20.013  57.276 -35.976  0.00  0.00    +0.000 OA
ATOM     16  C23 UNL     1     -22.153  58.200 -35.608  0.00  0.00    +0.000 C 
ATOM     17  C24 UNL     1     -23.191  58.600 -36.663  0.00  0.00    +0.000 C 
ATOM     18  C25 UNL     1     -24.049  57.402 -37.142  0.00  0.00    +0.000 C 
ATOM     19  C26 UNL     1     -21.381  56.312 -38.493  0.00  0.00    +0.000 C 
ATOM     20  O5  UNL     1     -23.891  55.354 -35.874  0.00  0.00    +0.000 OA
ATOM     21  C27 UNL     1     -20.419  51.438 -38.490  0.00  0.00    +0.000 C 
ENDROOT
BRANCH   1  22
ATOM     22  C7  UNL     1     -18.049  50.116 -36.399  0.00  0.00    +0.000 C 
ATOM     23  C8  UNL     1     -17.393  50.840 -37.594  0.00  0.00    +0.000 C 
BRANCH  22  30
ATOM     24  C1  UNL     1     -16.699  45.620 -34.221  0.00  0.00    +0.000 C 
ATOM     25  C2  UNL     1     -17.499  46.401 -35.227  0.00  0.00    +0.000 C 
ATOM     26  C3  UNL     1     -18.183  45.760 -36.192  0.00  0.00    +0.000 C 
ATOM     27  C4  UNL     1     -18.952  46.547 -37.175  0.00  0.00    +0.000 C 
ATOM     28  O1  UNL     1     -19.746  45.984 -37.973  0.00  0.00    +0.000 OA
ATOM     29  O2  UNL     1     -18.805  47.935 -37.206  0.00  0.00    +0.000 OA
ATOM     30  C5  UNL     1     -17.765  48.583 -36.470  0.00  0.00    +0.000 C 
ATOM     31  C6  UNL     1     -17.599  47.906 -35.088  0.00  0.00    +0.000 C 
BRANCH  26  32
ATOM     32  O6  UNL     1     -18.160  44.366 -36.267  0.00  0.00    +0.000 OA
ATOM     33  H38 UNL     1     -18.310  43.877 -37.142  0.00  0.00    +0.000 HD
ENDBRANCH  26  32
ENDBRANCH  22  30
ENDBRANCH   1  22
BRANCH  18  34
ATOM     34  O4  UNL     1     -24.389  57.557 -38.495  0.00  0.00    +0.000 OA
ATOM     35  H31 UNL     1     -24.297  56.664 -38.917  0.00  0.00    +0.000 HD
ENDBRANCH  18  34
TORSDOF 4
ENDMDL
MODEL 9
REMARK VINA RESULT:      -4.1      2.212      4.916
REMARK  Name = .\Withaferin A.pdb
REMARK  8 active torsions:
REMARK  status: ('A' for Active; 'I' for Inactive)
REMARK    1  A    between atoms: C1_1  and  C2_2
REMARK    2  A    between atoms: C3_3  and  O6_33
REMARK    3  A    between atoms: C5_7  and  C7_9
REMARK    4  A    between atoms: C7_9  and  C8_10
REMARK    5  A    between atoms: C7_9  and  C9_11
REMARK    6  A    between atoms: C13_15  and  C27_32
REMARK    7  A    between atoms: C21_23  and  C26_30
REMARK    8  A    between atoms: C25_28  and  O4_29
REMARK                            x       y       z     vdW  Elec       q    Type
REMARK                         _______ _______ _______ _____ _____    ______ ____
ROOT
ATOM      1  C9  UNL     1     -20.663  56.730 -35.613  0.00  0.00    +0.000 C 
ATOM      2  C10 UNL     1     -19.170  56.833 -35.960  0.00  0.00    +0.000 C 
ATOM      3  C11 UNL     1     -18.803  55.584 -36.751  0.00  0.00    +0.000 C 
ATOM      4  C12 UNL     1     -20.086  54.755 -36.903  0.00  0.00    +0.000 C 
ATOM      5  C13 UNL     1     -20.995  55.204 -35.735  0.00  0.00    +0.000 C 
ATOM      6  C14 UNL     1     -20.601  54.431 -34.449  0.00  0.00    +0.000 C 
ATOM      7  C15 UNL     1     -20.687  52.923 -34.641  0.00  0.00    +0.000 C 
ATOM      8  C16 UNL     1     -19.708  52.388 -35.719  0.00  0.00    +0.000 C 
ATOM      9  C17 UNL     1     -19.777  53.221 -37.043  0.00  0.00    +0.000 C 
ATOM     10  C18 UNL     1     -20.630  52.514 -38.116  0.00  0.00    +0.000 C 
ATOM     11  C19 UNL     1     -20.042  51.145 -38.495  0.00  0.00    +0.000 C 
ATOM     12  C20 UNL     1     -19.592  50.282 -37.375  0.00  0.00    +0.000 C 
ATOM     13  C21 UNL     1     -19.804  50.790 -35.906  0.00  0.00    +0.000 C 
ATOM     14  C22 UNL     1     -18.757  50.110 -35.028  0.00  0.00    +0.000 C 
ATOM     15  O3  UNL     1     -18.642  50.427 -33.852  0.00  0.00    +0.000 OA
ATOM     16  C23 UNL     1     -17.866  49.027 -35.585  0.00  0.00    +0.000 C 
ATOM     17  C24 UNL     1     -18.690  48.065 -36.449  0.00  0.00    +0.000 C 
ATOM     18  C25 UNL     1     -19.373  48.774 -37.646  0.00  0.00    +0.000 C 
ATOM     19  C26 UNL     1     -21.187  50.226 -35.471  0.00  0.00    +0.000 C 
ATOM     20  O5  UNL     1     -18.676  51.031 -38.139  0.00  0.00    +0.000 OA
ATOM     21  C27 UNL     1     -22.485  54.979 -36.106  0.00  0.00    +0.000 C 
ENDROOT
BRANCH   1  22
ATOM     22  C7  UNL     1     -21.011  57.464 -34.265  0.00  0.00    +0.000 C 
ATOM     23  C8  UNL     1     -21.504  58.909 -34.495  0.00  0.00    +0.000 C 
BRANCH  22  30
ATOM     24  C1  UNL     1     -17.835  59.816 -30.924  0.00  0.00    +0.000 C 
ATOM     25  C2  UNL     1     -18.624  58.611 -31.355  0.00  0.00    +0.000 C 
ATOM     26  C3  UNL     1     -18.455  57.431 -30.730  0.00  0.00    +0.000 C 
ATOM     27  C4  UNL     1     -19.232  56.260 -31.177  0.00  0.00    +0.000 C 
ATOM     28  O1  UNL     1     -19.239  55.195 -30.505  0.00  0.00    +0.000 OA
ATOM     29  O2  UNL     1     -19.980  56.342 -32.352  0.00  0.00    +0.000 OA
ATOM     30  C5  UNL     1     -19.829  57.448 -33.246  0.00  0.00    +0.000 C 
ATOM     31  C6  UNL     1     -19.673  58.759 -32.438  0.00  0.00    +0.000 C 
BRANCH  26  32
ATOM     32  O6  UNL     1     -17.549  57.316 -29.673  0.00  0.00    +0.000 OA
ATOM     33  H38 UNL     1     -17.059  58.121 -29.302  0.00  0.00    +0.000 HD
ENDBRANCH  26  32
ENDBRANCH  22  30
ENDBRANCH   1  22
BRANCH  18  34
ATOM     34  O4  UNL     1     -20.609  48.170 -37.928  0.00  0.00    +0.000 OA
ATOM     35  H31 UNL     1     -21.077  48.763 -38.571  0.00  0.00    +0.000 HD
ENDBRANCH  18  34
TORSDOF 4
ENDMDL
