MODEL 1
REMARK VINA RESULT:     133.8      0.000      0.000
REMARK  Name = .\Withaferin A.pdb
REMARK  8 active torsions:
REMARK  status: ('A' for Active; 'I' for Inactive)
REMARK    1  A    between atoms: C1_1  and  C2_2
REMARK    2  A    between atoms: C3_3  and  O6_33
REMARK    3  A    between atoms: C5_7  and  C7_9
REMARK    4  A    between atoms: C7_9  and  C8_10
REMARK    5  A    between atoms: C7_9  and  C9_11
REMARK    6  A    between atoms: C13_15  and  C27_32
REMARK    7  A    between atoms: C21_23  and  C26_30
REMARK    8  A    between atoms: C25_28  and  O4_29
REMARK                            x       y       z     vdW  Elec       q    Type
REMARK                         _______ _______ _______ _____ _____    ______ ____
ROOT
ATOM      1  C9  UNL     1     -16.349  81.911  45.144  0.00  0.00    +0.000 C 
ATOM      2  C10 UNL     1     -15.373  83.092  45.021  0.00  0.00    +0.000 C 
ATOM      3  C11 UNL     1     -14.040  82.637  45.598  0.00  0.00    +0.000 C 
ATOM      4  C12 UNL     1     -14.213  81.175  46.034  0.00  0.00    +0.000 C 
ATOM      5  C13 UNL     1     -15.733  81.001  46.260  0.00  0.00    +0.000 C 
ATOM      6  C14 UNL     1     -16.105  81.508  47.678  0.00  0.00    +0.000 C 
ATOM      7  C15 UNL     1     -15.319  80.788  48.766  0.00  0.00    +0.000 C 
ATOM      8  C16 UNL     1     -13.788  81.022  48.669  0.00  0.00    +0.000 C 
ATOM      9  C17 UNL     1     -13.248  80.799  47.216  0.00  0.00    +0.000 C 
ATOM     10  C18 UNL     1     -12.590  79.414  47.060  0.00  0.00    +0.000 C 
ATOM     11  C19 UNL     1     -11.384  79.251  48.000  0.00  0.00    +0.000 C 
ATOM     12  C20 UNL     1     -11.566  79.711  49.398  0.00  0.00    +0.000 C 
ATOM     13  C21 UNL     1     -12.970  80.261  49.831  0.00  0.00    +0.000 C 
ATOM     14  C22 UNL     1     -12.751  81.210  51.006  0.00  0.00    +0.000 C 
ATOM     15  O3  UNL     1     -13.688  81.857  51.454  0.00  0.00    +0.000 OA
ATOM     16  C23 UNL     1     -11.392  81.349  51.645  0.00  0.00    +0.000 C 
ATOM     17  C24 UNL     1     -10.752  79.965  51.819  0.00  0.00    +0.000 C 
ATOM     18  C25 UNL     1     -10.565  79.221  50.474  0.00  0.00    +0.000 C 
ATOM     19  C26 UNL     1     -13.741  79.030  50.387  0.00  0.00    +0.000 C 
ATOM     20  O5  UNL     1     -10.883  80.497  48.450  0.00  0.00    +0.000 OA
ATOM     21  C27 UNL     1     -16.132  79.514  46.059  0.00  0.00    +0.000 C 
ENDROOT
BRANCH   1  22
ATOM     22  C7  UNL     1     -17.840  82.388  45.308  0.00  0.00    +0.000 C 
ATOM     23  C8  UNL     1     -18.031  83.865  44.903  0.00  0.00    +0.000 C 
BRANCH  22  30
ATOM     24  C1  UNL     1     -18.725  79.345  49.399  0.00  0.00    +0.000 C 
ATOM     25  C2  UNL     1     -18.407  80.692  48.812  0.00  0.00    +0.000 C 
ATOM     26  C3  UNL     1     -18.429  81.791  49.589  0.00  0.00    +0.000 C 
ATOM     27  C4  UNL     1     -18.124  83.104  48.990  0.00  0.00    +0.000 C 
ATOM     28  O1  UNL     1     -17.955  84.120  49.714  0.00  0.00    +0.000 OA
ATOM     29  O2  UNL     1     -18.006  83.214  47.604  0.00  0.00    +0.000 OA
ATOM     30  C5  UNL     1     -18.399  82.141  46.744  0.00  0.00    +0.000 C 
ATOM     31  C6  UNL     1     -17.974  80.789  47.363  0.00  0.00    +0.000 C 
BRANCH  26  32
ATOM     32  O6  UNL     1     -18.744  81.690  50.946  0.00  0.00    +0.000 OA
ATOM     33  H38 UNL     1     -18.272  81.032  51.554  0.00  0.00    +0.000 HD
ENDBRANCH  26  32
ENDBRANCH  22  30
ENDBRANCH   1  22
BRANCH  18  34
ATOM     34  O4  UNL     1     -10.724  77.838  50.657  0.00  0.00    +0.000 OA
ATOM     35  H31 UNL     1     -11.347  77.720  51.421  0.00  0.00    +0.000 HD
ENDBRANCH  18  34
TORSDOF 4
ENDMDL
