MODEL 1
REMARK VINA RESULT:      -8.7      0.000      0.000
REMARK  Name = .\Withaferin A.pdb
REMARK  8 active torsions:
REMARK  status: ('A' for Active; 'I' for Inactive)
REMARK    1  A    between atoms: C1_1  and  C2_2
REMARK    2  A    between atoms: C3_3  and  O6_33
REMARK    3  A    between atoms: C5_7  and  C7_9
REMARK    4  A    between atoms: C7_9  and  C8_10
REMARK    5  A    between atoms: C7_9  and  C9_11
REMARK    6  A    between atoms: C13_15  and  C27_32
REMARK    7  A    between atoms: C21_23  and  C26_30
REMARK    8  A    between atoms: C25_28  and  O4_29
REMARK                            x       y       z     vdW  Elec       q    Type
REMARK                         _______ _______ _______ _____ _____    ______ ____
ROOT
ATOM      1  C9  UNL     1     -12.696  80.714 104.844  0.00  0.00    +0.000 C 
ATOM      2  C10 UNL     1     -13.495  80.700 106.157  0.00  0.00    +0.000 C 
ATOM      3  C11 UNL     1     -13.979  79.273 106.375  0.00  0.00    +0.000 C 
ATOM      4  C12 UNL     1     -13.440  78.432 105.209  0.00  0.00    +0.000 C 
ATOM      5  C13 UNL     1     -13.185  79.445 104.068  0.00  0.00    +0.000 C 
ATOM      6  C14 UNL     1     -14.512  79.714 103.312  0.00  0.00    +0.000 C 
ATOM      7  C15 UNL     1     -15.125  78.434 102.760  0.00  0.00    +0.000 C 
ATOM      8  C16 UNL     1     -15.518  77.420 103.866  0.00  0.00    +0.000 C 
ATOM      9  C17 UNL     1     -14.365  77.199 104.902  0.00  0.00    +0.000 C 
ATOM     10  C18 UNL     1     -13.587  75.898 104.618  0.00  0.00    +0.000 C 
ATOM     11  C19 UNL     1     -14.497  74.663 104.712  0.00  0.00    +0.000 C 
ATOM     12  C20 UNL     1     -15.823  74.762 104.056  0.00  0.00    +0.000 C 
ATOM     13  C21 UNL     1     -16.173  76.074 103.268  0.00  0.00    +0.000 C 
ATOM     14  C22 UNL     1     -17.692  76.209 103.251  0.00  0.00    +0.000 C 
ATOM     15  O3  UNL     1     -18.214  77.215 102.790  0.00  0.00    +0.000 OA
ATOM     16  C23 UNL     1     -18.574  75.103 103.779  0.00  0.00    +0.000 C 
ATOM     17  C24 UNL     1     -18.053  73.744 103.295  0.00  0.00    +0.000 C 
ATOM     18  C25 UNL     1     -16.605  73.458 103.767  0.00  0.00    +0.000 C 
ATOM     19  C26 UNL     1     -15.731  75.803 101.801  0.00  0.00    +0.000 C 
ATOM     20  O5  UNL     1     -15.679  74.923 105.447  0.00  0.00    +0.000 OA
ATOM     21  C27 UNL     1     -12.082  78.906 103.118  0.00  0.00    +0.000 C 
ENDROOT
BRANCH   1  22
ATOM     22  C7  UNL     1     -12.774  82.109 104.119  0.00  0.00    +0.000 C 
ATOM     23  C8  UNL     1     -14.229  82.584 103.916  0.00  0.00    +0.000 C 
BRANCH  22  30
ATOM     24  C1  UNL     1     -12.598  82.652  98.975  0.00  0.00    +0.000 C 
ATOM     25  C2  UNL     1     -11.971  82.815 100.332  0.00  0.00    +0.000 C 
ATOM     26  C3  UNL     1     -10.678  83.171 100.443  0.00  0.00    +0.000 C 
ATOM     27  C4  UNL     1     -10.082  83.315 101.784  0.00  0.00    +0.000 C 
ATOM     28  O1  UNL     1      -8.939  83.821 101.931  0.00  0.00    +0.000 OA
ATOM     29  O2  UNL     1     -10.804  82.897 102.903  0.00  0.00    +0.000 OA
ATOM     30  C5  UNL     1     -12.002  82.129 102.763  0.00  0.00    +0.000 C 
ATOM     31  C6  UNL     1     -12.831  82.662 101.571  0.00  0.00    +0.000 C 
BRANCH  26  32
ATOM     32  O6  UNL     1      -9.908  83.396  99.300  0.00  0.00    +0.000 OA
ATOM     33  H38 UNL     1      -9.861  84.307  98.860  0.00  0.00    +0.000 HD
ENDBRANCH  26  32
ENDBRANCH  22  30
ENDBRANCH   1  22
BRANCH  18  34
ATOM     34  O4  UNL     1     -15.917  72.710 102.798  0.00  0.00    +0.000 OA
ATOM     35  H31 UNL     1     -14.956  72.735 103.047  0.00  0.00    +0.000 HD
ENDBRANCH  18  34
TORSDOF 4
ENDMDL
MODEL 2
REMARK VINA RESULT:      -8.5      2.403      8.437
REMARK  Name = .\Withaferin A.pdb
REMARK  8 active torsions:
REMARK  status: ('A' for Active; 'I' for Inactive)
REMARK    1  A    between atoms: C1_1  and  C2_2
REMARK    2  A    between atoms: C3_3  and  O6_33
REMARK    3  A    between atoms: C5_7  and  C7_9
REMARK    4  A    between atoms: C7_9  and  C8_10
REMARK    5  A    between atoms: C7_9  and  C9_11
REMARK    6  A    between atoms: C13_15  and  C27_32
REMARK    7  A    between atoms: C21_23  and  C26_30
REMARK    8  A    between atoms: C25_28  and  O4_29
REMARK                            x       y       z     vdW  Elec       q    Type
REMARK                         _______ _______ _______ _____ _____    ______ ____
ROOT
ATOM      1  C9  UNL     1     -13.378  76.592 102.388  0.00  0.00    +0.000 C 
ATOM      2  C10 UNL     1     -14.456  77.318 101.567  0.00  0.00    +0.000 C 
ATOM      3  C11 UNL     1     -14.259  78.812 101.784  0.00  0.00    +0.000 C 
ATOM      4  C12 UNL     1     -13.043  78.976 102.708  0.00  0.00    +0.000 C 
ATOM      5  C13 UNL     1     -12.934  77.634 103.469  0.00  0.00    +0.000 C 
ATOM      6  C14 UNL     1     -13.904  77.648 104.679  0.00  0.00    +0.000 C 
ATOM      7  C15 UNL     1     -13.630  78.817 105.617  0.00  0.00    +0.000 C 
ATOM      8  C16 UNL     1     -13.841  80.199 104.947  0.00  0.00    +0.000 C 
ATOM      9  C17 UNL     1     -13.128  80.296 103.556  0.00  0.00    +0.000 C 
ATOM     10  C18 UNL     1     -11.789  81.054 103.655  0.00  0.00    +0.000 C 
ATOM     11  C19 UNL     1     -11.991  82.499 104.140  0.00  0.00    +0.000 C 
ATOM     12  C20 UNL     1     -12.913  82.693 105.285  0.00  0.00    +0.000 C 
ATOM     13  C21 UNL     1     -13.555  81.426 105.953  0.00  0.00    +0.000 C 
ATOM     14  C22 UNL     1     -14.863  81.864 106.607  0.00  0.00    +0.000 C 
ATOM     15  O3  UNL     1     -15.610  81.031 107.101  0.00  0.00    +0.000 OA
ATOM     16  C23 UNL     1     -15.243  83.323 106.676  0.00  0.00    +0.000 C 
ATOM     17  C24 UNL     1     -14.023  84.163 107.072  0.00  0.00    +0.000 C 
ATOM     18  C25 UNL     1     -12.853  84.029 106.065  0.00  0.00    +0.000 C 
ATOM     19  C26 UNL     1     -12.588  81.032 107.105  0.00  0.00    +0.000 C 
ATOM     20  O5  UNL     1     -13.323  82.942 103.961  0.00  0.00    +0.000 OA
ATOM     21  C27 UNL     1     -11.466  77.395 103.913  0.00  0.00    +0.000 C 
ENDROOT
BRANCH   1  22
ATOM     22  C7  UNL     1     -13.856  75.173 102.870  0.00  0.00    +0.000 C 
ATOM     23  C8  UNL     1     -13.673  74.092 101.785  0.00  0.00    +0.000 C 
BRANCH  22  30
ATOM     24  C1  UNL     1     -18.953  75.717 102.152  0.00  0.00    +0.000 C 
ATOM     25  C2  UNL     1     -17.789  75.060 102.842  0.00  0.00    +0.000 C 
ATOM     26  C3  UNL     1     -17.995  74.260 103.905  0.00  0.00    +0.000 C 
ATOM     27  C4  UNL     1     -16.838  73.635 104.573  0.00  0.00    +0.000 C 
ATOM     28  O1  UNL     1     -17.002  72.744 105.446  0.00  0.00    +0.000 OA
ATOM     29  O2  UNL     1     -15.547  74.028 104.216  0.00  0.00    +0.000 OA
ATOM     30  C5  UNL     1     -15.327  75.176 103.393  0.00  0.00    +0.000 C 
ATOM     31  C6  UNL     1     -16.395  75.233 102.274  0.00  0.00    +0.000 C 
BRANCH  26  32
ATOM     32  O6  UNL     1     -19.291  74.032 104.376  0.00  0.00    +0.000 OA
ATOM     33  H38 UNL     1     -19.889  74.792 104.676  0.00  0.00    +0.000 HD
ENDBRANCH  26  32
ENDBRANCH  22  30
ENDBRANCH   1  22
BRANCH  18  34
ATOM     34  O4  UNL     1     -11.622  84.119 106.734  0.00  0.00    +0.000 OA
ATOM     35  H31 UNL     1     -10.916  84.106 106.037  0.00  0.00    +0.000 HD
ENDBRANCH  18  34
TORSDOF 4
ENDMDL
MODEL 3
REMARK VINA RESULT:      -8.5      2.765      8.891
REMARK  Name = .\Withaferin A.pdb
REMARK  8 active torsions:
REMARK  status: ('A' for Active; 'I' for Inactive)
REMARK    1  A    between atoms: C1_1  and  C2_2
REMARK    2  A    between atoms: C3_3  and  O6_33
REMARK    3  A    between atoms: C5_7  and  C7_9
REMARK    4  A    between atoms: C7_9  and  C8_10
REMARK    5  A    between atoms: C7_9  and  C9_11
REMARK    6  A    between atoms: C13_15  and  C27_32
REMARK    7  A    between atoms: C21_23  and  C26_30
REMARK    8  A    between atoms: C25_28  and  O4_29
REMARK                            x       y       z     vdW  Elec       q    Type
REMARK                         _______ _______ _______ _____ _____    ______ ____
ROOT
ATOM      1  C9  UNL     1     -15.794  75.677 101.978  0.00  0.00    +0.000 C 
ATOM      2  C10 UNL     1     -17.191  75.972 102.548  0.00  0.00    +0.000 C 
ATOM      3  C11 UNL     1     -17.255  77.466 102.834  0.00  0.00    +0.000 C 
ATOM      4  C12 UNL     1     -15.908  78.065 102.404  0.00  0.00    +0.000 C 
ATOM      5  C13 UNL     1     -14.912  76.883 102.447  0.00  0.00    +0.000 C 
ATOM      6  C14 UNL     1     -14.405  76.689 103.900  0.00  0.00    +0.000 C 
ATOM      7  C15 UNL     1     -13.758  77.952 104.453  0.00  0.00    +0.000 C 
ATOM      8  C16 UNL     1     -14.740  79.148 104.550  0.00  0.00    +0.000 C 
ATOM      9  C17 UNL     1     -15.553  79.355 103.228  0.00  0.00    +0.000 C 
ATOM     10  C18 UNL     1     -14.964  80.493 102.371  0.00  0.00    +0.000 C 
ATOM     11  C19 UNL     1     -14.998  81.838 103.115  0.00  0.00    +0.000 C 
ATOM     12  C20 UNL     1     -14.563  81.824 104.533  0.00  0.00    +0.000 C 
ATOM     13  C21 UNL     1     -14.044  80.475 105.145  0.00  0.00    +0.000 C 
ATOM     14  C22 UNL     1     -14.269  80.537 106.653  0.00  0.00    +0.000 C 
ATOM     15  O3  UNL     1     -14.047  79.555 107.347  0.00  0.00    +0.000 OA
ATOM     16  C23 UNL     1     -14.742  81.809 107.313  0.00  0.00    +0.000 C 
ATOM     17  C24 UNL     1     -13.986  83.011 106.734  0.00  0.00    +0.000 C 
ATOM     18  C25 UNL     1     -14.194  83.168 105.206  0.00  0.00    +0.000 C 
ATOM     19  C26 UNL     1     -12.505  80.486 104.919  0.00  0.00    +0.000 C 
ATOM     20  O5  UNL     1     -15.927  81.835 104.184  0.00  0.00    +0.000 OA
ATOM     21  C27 UNL     1     -13.741  77.141 101.461  0.00  0.00    +0.000 C 
ENDROOT
BRANCH   1  22
ATOM     22  C7  UNL     1     -15.310  74.220 102.322  0.00  0.00    +0.000 C 
ATOM     23  C8  UNL     1     -15.443  73.258 101.123  0.00  0.00    +0.000 C 
BRANCH  22  30
ATOM     24  C1  UNL     1     -18.817  71.128 104.541  0.00  0.00    +0.000 C 
ATOM     25  C2  UNL     1     -17.470  71.796 104.545  0.00  0.00    +0.000 C 
ATOM     26  C3  UNL     1     -16.701  71.764 105.649  0.00  0.00    +0.000 C 
ATOM     27  C4  UNL     1     -15.388  72.435 105.633  0.00  0.00    +0.000 C 
ATOM     28  O1  UNL     1     -14.568  72.271 106.575  0.00  0.00    +0.000 OA
ATOM     29  O2  UNL     1     -15.047  73.248 104.551  0.00  0.00    +0.000 OA
ATOM     30  C5  UNL     1     -16.023  73.626 103.578  0.00  0.00    +0.000 C 
ATOM     31  C6  UNL     1     -16.949  72.426 103.269  0.00  0.00    +0.000 C 
BRANCH  26  32
ATOM     32  O6  UNL     1     -17.145  71.108 106.800  0.00  0.00    +0.000 OA
ATOM     33  H38 UNL     1     -16.502  70.802 107.519  0.00  0.00    +0.000 HD
ENDBRANCH  26  32
ENDBRANCH  22  30
ENDBRANCH   1  22
BRANCH  18  34
ATOM     34  O4  UNL     1     -13.034  83.683 104.608  0.00  0.00    +0.000 OA
ATOM     35  H31 UNL     1     -13.330  84.250 103.849  0.00  0.00    +0.000 HD
ENDBRANCH  18  34
TORSDOF 4
ENDMDL
MODEL 4
REMARK VINA RESULT:      -8.0      2.534      8.030
REMARK  Name = .\Withaferin A.pdb
REMARK  8 active torsions:
REMARK  status: ('A' for Active; 'I' for Inactive)
REMARK    1  A    between atoms: C1_1  and  C2_2
REMARK    2  A    between atoms: C3_3  and  O6_33
REMARK    3  A    between atoms: C5_7  and  C7_9
REMARK    4  A    between atoms: C7_9  and  C8_10
REMARK    5  A    between atoms: C7_9  and  C9_11
REMARK    6  A    between atoms: C13_15  and  C27_32
REMARK    7  A    between atoms: C21_23  and  C26_30
REMARK    8  A    between atoms: C25_28  and  O4_29
REMARK                            x       y       z     vdW  Elec       q    Type
REMARK                         _______ _______ _______ _____ _____    ______ ____
ROOT
ATOM      1  C9  UNL     1     -13.990  74.858 103.279  0.00  0.00    +0.000 C 
ATOM      2  C10 UNL     1     -12.977  75.269 102.199  0.00  0.00    +0.000 C 
ATOM      3  C11 UNL     1     -12.224  76.483 102.724  0.00  0.00    +0.000 C 
ATOM      4  C12 UNL     1     -12.766  76.774 104.131  0.00  0.00    +0.000 C 
ATOM      5  C13 UNL     1     -14.177  76.141 104.156  0.00  0.00    +0.000 C 
ATOM      6  C14 UNL     1     -15.194  77.124 103.519  0.00  0.00    +0.000 C 
ATOM      7  C15 UNL     1     -15.203  78.474 104.224  0.00  0.00    +0.000 C 
ATOM      8  C16 UNL     1     -13.846  79.220 104.132  0.00  0.00    +0.000 C 
ATOM      9  C17 UNL     1     -12.638  78.296 104.503  0.00  0.00    +0.000 C 
ATOM     10  C18 UNL     1     -12.158  78.540 105.948  0.00  0.00    +0.000 C 
ATOM     11  C19 UNL     1     -11.675  79.986 106.147  0.00  0.00    +0.000 C 
ATOM     12  C20 UNL     1     -12.528  81.056 105.574  0.00  0.00    +0.000 C 
ATOM     13  C21 UNL     1     -13.873  80.650 104.876  0.00  0.00    +0.000 C 
ATOM     14  C22 UNL     1     -14.216  81.742 103.868  0.00  0.00    +0.000 C 
ATOM     15  O3  UNL     1     -15.168  81.602 103.112  0.00  0.00    +0.000 OA
ATOM     16  C23 UNL     1     -13.409  83.016 103.801  0.00  0.00    +0.000 C 
ATOM     17  C24 UNL     1     -13.123  83.527 105.218  0.00  0.00    +0.000 C 
ATOM     18  C25 UNL     1     -12.325  82.508 106.071  0.00  0.00    +0.000 C 
ATOM     19  C26 UNL     1     -14.953  80.714 105.993  0.00  0.00    +0.000 C 
ATOM     20  O5  UNL     1     -11.360  80.619 104.920  0.00  0.00    +0.000 OA
ATOM     21  C27 UNL     1     -14.568  75.776 105.614  0.00  0.00    +0.000 C 
ENDROOT
BRANCH   1  22
ATOM     22  C7  UNL     1     -15.270  74.180 102.664  0.00  0.00    +0.000 C 
ATOM     23  C8  UNL     1     -15.029  73.665 101.230  0.00  0.00    +0.000 C 
BRANCH  22  30
ATOM     24  C1  UNL     1     -18.589  77.469 100.439  0.00  0.00    +0.000 C 
ATOM     25  C2  UNL     1     -18.295  76.364 101.416  0.00  0.00    +0.000 C 
ATOM     26  C3  UNL     1     -19.224  75.991 102.316  0.00  0.00    +0.000 C 
ATOM     27  C4  UNL     1     -18.910  74.913 103.272  0.00  0.00    +0.000 C 
ATOM     28  O1  UNL     1     -19.808  74.415 104.000  0.00  0.00    +0.000 OA
ATOM     29  O2  UNL     1     -17.603  74.430 103.355  0.00  0.00    +0.000 OA
ATOM     30  C5  UNL     1     -16.524  75.108 102.706  0.00  0.00    +0.000 C 
ATOM     31  C6  UNL     1     -16.981  75.615 101.318  0.00  0.00    +0.000 C 
BRANCH  26  32
ATOM     32  O6  UNL     1     -20.468  76.625 102.349  0.00  0.00    +0.000 OA
ATOM     33  H38 UNL     1     -20.993  76.721 103.210  0.00  0.00    +0.000 HD
ENDBRANCH  26  32
ENDBRANCH  22  30
ENDBRANCH   1  22
BRANCH  18  34
ATOM     34  O4  UNL     1     -12.710  82.595 107.418  0.00  0.00    +0.000 OA
ATOM     35  H31 UNL     1     -13.693  82.734 107.426  0.00  0.00    +0.000 HD
ENDBRANCH  18  34
TORSDOF 4
ENDMDL
MODEL 5
REMARK VINA RESULT:      -8.0      2.513      9.076
REMARK  Name = .\Withaferin A.pdb
REMARK  8 active torsions:
REMARK  status: ('A' for Active; 'I' for Inactive)
REMARK    1  A    between atoms: C1_1  and  C2_2
REMARK    2  A    between atoms: C3_3  and  O6_33
REMARK    3  A    between atoms: C5_7  and  C7_9
REMARK    4  A    between atoms: C7_9  and  C8_10
REMARK    5  A    between atoms: C7_9  and  C9_11
REMARK    6  A    between atoms: C13_15  and  C27_32
REMARK    7  A    between atoms: C21_23  and  C26_30
REMARK    8  A    between atoms: C25_28  and  O4_29
REMARK                            x       y       z     vdW  Elec       q    Type
REMARK                         _______ _______ _______ _____ _____    ______ ____
ROOT
ATOM      1  C9  UNL     1     -14.418  74.380 103.173  0.00  0.00    +0.000 C 
ATOM      2  C10 UNL     1     -13.478  74.670 101.993  0.00  0.00    +0.000 C 
ATOM      3  C11 UNL     1     -12.677  75.914 102.348  0.00  0.00    +0.000 C 
ATOM      4  C12 UNL     1     -13.117  76.347 103.755  0.00  0.00    +0.000 C 
ATOM      5  C13 UNL     1     -14.530  75.744 103.935  0.00  0.00    +0.000 C 
ATOM      6  C14 UNL     1     -15.577  76.680 103.277  0.00  0.00    +0.000 C 
ATOM      7  C15 UNL     1     -15.522  78.090 103.849  0.00  0.00    +0.000 C 
ATOM      8  C16 UNL     1     -14.167  78.800 103.595  0.00  0.00    +0.000 C 
ATOM      9  C17 UNL     1     -12.946  77.894 103.970  0.00  0.00    +0.000 C 
ATOM     10  C18 UNL     1     -12.366  78.265 105.349  0.00  0.00    +0.000 C 
ATOM     11  C19 UNL     1     -11.854  79.715 105.377  0.00  0.00    +0.000 C 
ATOM     12  C20 UNL     1     -12.731  80.740 104.763  0.00  0.00    +0.000 C 
ATOM     13  C21 UNL     1     -14.126  80.294 104.199  0.00  0.00    +0.000 C 
ATOM     14  C22 UNL     1     -14.526  81.293 103.117  0.00  0.00    +0.000 C 
ATOM     15  O3  UNL     1     -15.528  81.099 102.444  0.00  0.00    +0.000 OA
ATOM     16  C23 UNL     1     -13.711  82.540 102.875  0.00  0.00    +0.000 C 
ATOM     17  C24 UNL     1     -13.321  83.177 104.215  0.00  0.00    +0.000 C 
ATOM     18  C25 UNL     1     -12.479  82.229 105.105  0.00  0.00    +0.000 C 
ATOM     19  C26 UNL     1     -15.126  80.483 105.375  0.00  0.00    +0.000 C 
ATOM     20  O5  UNL     1     -11.616  80.223 104.077  0.00  0.00    +0.000 OA
ATOM     21  C27 UNL     1     -14.824  75.525 105.443  0.00  0.00    +0.000 C 
ENDROOT
BRANCH   1  22
ATOM     22  C7  UNL     1     -15.746  73.671 102.714  0.00  0.00    +0.000 C 
ATOM     23  C8  UNL     1     -16.672  74.616 101.920  0.00  0.00    +0.000 C 
BRANCH  22  30
ATOM     24  C1  UNL     1     -19.427  70.553 104.588  0.00  0.00    +0.000 C 
ATOM     25  C2  UNL     1     -18.061  71.174 104.685  0.00  0.00    +0.000 C 
ATOM     26  C3  UNL     1     -17.334  71.040 105.811  0.00  0.00    +0.000 C 
ATOM     27  C4  UNL     1     -16.001  71.666 105.887  0.00  0.00    +0.000 C 
ATOM     28  O1  UNL     1     -15.223  71.411 106.843  0.00  0.00    +0.000 OA
ATOM     29  O2  UNL     1     -15.596  72.540 104.877  0.00  0.00    +0.000 OA
ATOM     30  C5  UNL     1     -16.523  73.016 103.899  0.00  0.00    +0.000 C 
ATOM     31  C6  UNL     1     -17.474  71.872 103.475  0.00  0.00    +0.000 C 
BRANCH  26  32
ATOM     32  O6  UNL     1     -17.841  70.322 106.896  0.00  0.00    +0.000 OA
ATOM     33  H38 UNL     1     -17.928  69.313 106.873  0.00  0.00    +0.000 HD
ENDBRANCH  26  32
ENDBRANCH  22  30
ENDBRANCH   1  22
BRANCH  18  34
ATOM     34  O4  UNL     1     -12.769  82.450 106.460  0.00  0.00    +0.000 OA
ATOM     35  H31 UNL     1     -13.628  81.988 106.648  0.00  0.00    +0.000 HD
ENDBRANCH  18  34
TORSDOF 4
ENDMDL
MODEL 6
REMARK VINA RESULT:      -8.0      2.608      4.708
REMARK  Name = .\Withaferin A.pdb
REMARK  8 active torsions:
REMARK  status: ('A' for Active; 'I' for Inactive)
REMARK    1  A    between atoms: C1_1  and  C2_2
REMARK    2  A    between atoms: C3_3  and  O6_33
REMARK    3  A    between atoms: C5_7  and  C7_9
REMARK    4  A    between atoms: C7_9  and  C8_10
REMARK    5  A    between atoms: C7_9  and  C9_11
REMARK    6  A    between atoms: C13_15  and  C27_32
REMARK    7  A    between atoms: C21_23  and  C26_30
REMARK    8  A    between atoms: C25_28  and  O4_29
REMARK                            x       y       z     vdW  Elec       q    Type
REMARK                         _______ _______ _______ _____ _____    ______ ____
ROOT
ATOM      1  C9  UNL     1     -13.058  76.593 103.998  0.00  0.00    +0.000 C 
ATOM      2  C10 UNL     1     -13.808  76.672 105.337  0.00  0.00    +0.000 C 
ATOM      3  C11 UNL     1     -15.276  76.386 105.050  0.00  0.00    +0.000 C 
ATOM      4  C12 UNL     1     -15.393  76.104 103.545  0.00  0.00    +0.000 C 
ATOM      5  C13 UNL     1     -14.166  76.798 102.910  0.00  0.00    +0.000 C 
ATOM      6  C14 UNL     1     -14.480  78.301 102.692  0.00  0.00    +0.000 C 
ATOM      7  C15 UNL     1     -15.716  78.508 101.827  0.00  0.00    +0.000 C 
ATOM      8  C16 UNL     1     -17.010  77.939 102.465  0.00  0.00    +0.000 C 
ATOM      9  C17 UNL     1     -16.816  76.477 102.991  0.00  0.00    +0.000 C 
ATOM     10  C18 UNL     1     -17.386  75.438 102.005  0.00  0.00    +0.000 C 
ATOM     11  C19 UNL     1     -18.898  75.627 101.796  0.00  0.00    +0.000 C 
ATOM     12  C20 UNL     1     -19.372  77.017 101.594  0.00  0.00    +0.000 C 
ATOM     13  C21 UNL     1     -18.311  78.171 101.542  0.00  0.00    +0.000 C 
ATOM     14  C22 UNL     1     -19.011  79.460 101.962  0.00  0.00    +0.000 C 
ATOM     15  O3  UNL     1     -18.366  80.489 102.111  0.00  0.00    +0.000 OA
ATOM     16  C23 UNL     1     -20.504  79.494 102.179  0.00  0.00    +0.000 C 
ATOM     17  C24 UNL     1     -21.212  78.724 101.058  0.00  0.00    +0.000 C 
ATOM     18  C25 UNL     1     -20.781  77.237 100.990  0.00  0.00    +0.000 C 
ATOM     19  C26 UNL     1     -17.947  78.329 100.038  0.00  0.00    +0.000 C 
ATOM     20  O5  UNL     1     -19.494  76.374 102.840  0.00  0.00    +0.000 OA
ATOM     21  C27 UNL     1     -13.788  76.093 101.580  0.00  0.00    +0.000 C 
ENDROOT
BRANCH   1  22
ATOM     22  C7  UNL     1     -11.798  77.535 103.968  0.00  0.00    +0.000 C 
ATOM     23  C8  UNL     1     -10.583  76.914 104.688  0.00  0.00    +0.000 C 
BRANCH  22  30
ATOM     24  C1  UNL     1     -11.159  81.272 107.491  0.00  0.00    +0.000 C 
ATOM     25  C2  UNL     1     -11.395  80.836 106.072  0.00  0.00    +0.000 C 
ATOM     26  C3  UNL     1     -11.729  81.740 105.132  0.00  0.00    +0.000 C 
ATOM     27  C4  UNL     1     -11.965  81.287 103.748  0.00  0.00    +0.000 C 
ATOM     28  O1  UNL     1     -12.098  82.118 102.812  0.00  0.00    +0.000 OA
ATOM     29  O2  UNL     1     -12.027  79.920 103.475  0.00  0.00    +0.000 OA
ATOM     30  C5  UNL     1     -12.095  78.960 104.532  0.00  0.00    +0.000 C 
ATOM     31  C6  UNL     1     -11.163  79.387 105.691  0.00  0.00    +0.000 C 
BRANCH  26  32
ATOM     32  O6  UNL     1     -11.858  83.090 105.466  0.00  0.00    +0.000 OA
ATOM     33  H38 UNL     1     -11.460  83.467 106.317  0.00  0.00    +0.000 HD
ENDBRANCH  26  32
ENDBRANCH  22  30
ENDBRANCH   1  22
BRANCH  18  34
ATOM     34  O4  UNL     1     -20.790  76.789  99.660  0.00  0.00    +0.000 OA
ATOM     35  H31 UNL     1     -19.887  76.973  99.290  0.00  0.00    +0.000 HD
ENDBRANCH  18  34
TORSDOF 4
ENDMDL
MODEL 7
REMARK VINA RESULT:      -7.8      1.145      1.685
REMARK  Name = .\Withaferin A.pdb
REMARK  8 active torsions:
REMARK  status: ('A' for Active; 'I' for Inactive)
REMARK    1  A    between atoms: C1_1  and  C2_2
REMARK    2  A    between atoms: C3_3  and  O6_33
REMARK    3  A    between atoms: C5_7  and  C7_9
REMARK    4  A    between atoms: C7_9  and  C8_10
REMARK    5  A    between atoms: C7_9  and  C9_11
REMARK    6  A    between atoms: C13_15  and  C27_32
REMARK    7  A    between atoms: C21_23  and  C26_30
REMARK    8  A    between atoms: C25_28  and  O4_29
REMARK                            x       y       z     vdW  Elec       q    Type
REMARK                         _______ _______ _______ _____ _____    ______ ____
ROOT
ATOM      1  C9  UNL     1     -13.451  80.824 104.310  0.00  0.00    +0.000 C 
ATOM      2  C10 UNL     1     -13.965  80.653 105.748  0.00  0.00    +0.000 C 
ATOM      3  C11 UNL     1     -14.219  79.167 105.963  0.00  0.00    +0.000 C 
ATOM      4  C12 UNL     1     -13.825  78.451 104.663  0.00  0.00    +0.000 C 
ATOM      5  C13 UNL     1     -13.926  79.533 103.562  0.00  0.00    +0.000 C 
ATOM      6  C14 UNL     1     -15.399  79.655 103.094  0.00  0.00    +0.000 C 
ATOM      7  C15 UNL     1     -15.950  78.328 102.589  0.00  0.00    +0.000 C 
ATOM      8  C16 UNL     1     -15.990  77.228 103.682  0.00  0.00    +0.000 C 
ATOM      9  C17 UNL     1     -14.636  77.120 104.461  0.00  0.00    +0.000 C 
ATOM     10  C18 UNL     1     -13.778  75.946 103.950  0.00  0.00    +0.000 C 
ATOM     11  C19 UNL     1     -14.494  74.598 104.137  0.00  0.00    +0.000 C 
ATOM     12  C20 UNL     1     -15.926  74.548 103.755  0.00  0.00    +0.000 C 
ATOM     13  C21 UNL     1     -16.582  75.832 103.135  0.00  0.00    +0.000 C 
ATOM     14  C22 UNL     1     -18.080  75.766 103.419  0.00  0.00    +0.000 C 
ATOM     15  O3  UNL     1     -18.800  76.713 103.132  0.00  0.00    +0.000 OA
ATOM     16  C23 UNL     1     -18.698  74.535 104.034  0.00  0.00    +0.000 C 
ATOM     17  C24 UNL     1     -18.122  73.276 103.373  0.00  0.00    +0.000 C 
ATOM     18  C25 UNL     1     -16.586  73.164 103.539  0.00  0.00    +0.000 C 
ATOM     19  C26 UNL     1     -16.411  75.679 101.597  0.00  0.00    +0.000 C 
ATOM     20  O5  UNL     1     -15.529  74.671 105.101  0.00  0.00    +0.000 OA
ATOM     21  C27 UNL     1     -12.977  79.181 102.386  0.00  0.00    +0.000 C 
ENDROOT
BRANCH   1  22
ATOM     22  C7  UNL     1     -13.840  82.223 103.704  0.00  0.00    +0.000 C 
ATOM     23  C8  UNL     1     -15.327  82.294 103.298  0.00  0.00    +0.000 C 
BRANCH  22  30
ATOM     24  C1  UNL     1      -9.213  82.654 101.426  0.00  0.00    +0.000 C 
ATOM     25  C2  UNL     1     -10.696  82.420 101.347  0.00  0.00    +0.000 C 
ATOM     26  C3  UNL     1     -11.314  82.389 100.151  0.00  0.00    +0.000 C 
ATOM     27  C4  UNL     1     -12.771  82.168 100.098  0.00  0.00    +0.000 C 
ATOM     28  O1  UNL     1     -13.350  81.950  99.001  0.00  0.00    +0.000 OA
ATOM     29  O2  UNL     1     -13.510  82.186 101.281  0.00  0.00    +0.000 OA
ATOM     30  C5  UNL     1     -12.929  82.638 102.506  0.00  0.00    +0.000 C 
ATOM     31  C6  UNL     1     -11.472  82.130 102.616  0.00  0.00    +0.000 C 
BRANCH  26  32
ATOM     32  O6  UNL     1     -10.583  82.571  98.975  0.00  0.00    +0.000 OA
ATOM     33  H38 UNL     1     -10.343  83.494  98.635  0.00  0.00    +0.000 HD
ENDBRANCH  26  32
ENDBRANCH  22  30
ENDBRANCH   1  22
BRANCH  18  34
ATOM     34  O4  UNL     1     -16.018  72.552 102.410  0.00  0.00    +0.000 OA
ATOM     35  H31 UNL     1     -16.381  73.024 101.616  0.00  0.00    +0.000 HD
ENDBRANCH  18  34
TORSDOF 4
ENDMDL
MODEL 8
REMARK VINA RESULT:      -7.7      2.258      8.891
REMARK  Name = .\Withaferin A.pdb
REMARK  8 active torsions:
REMARK  status: ('A' for Active; 'I' for Inactive)
REMARK    1  A    between atoms: C1_1  and  C2_2
REMARK    2  A    between atoms: C3_3  and  O6_33
REMARK    3  A    between atoms: C5_7  and  C7_9
REMARK    4  A    between atoms: C7_9  and  C8_10
REMARK    5  A    between atoms: C7_9  and  C9_11
REMARK    6  A    between atoms: C13_15  and  C27_32
REMARK    7  A    between atoms: C21_23  and  C26_30
REMARK    8  A    between atoms: C25_28  and  O4_29
REMARK                            x       y       z     vdW  Elec       q    Type
REMARK                         _______ _______ _______ _____ _____    ______ ____
ROOT
ATOM      1  C9  UNL     1     -14.107  75.334 104.261  0.00  0.00    +0.000 C 
ATOM      2  C10 UNL     1     -14.510  74.970 102.824  0.00  0.00    +0.000 C 
ATOM      3  C11 UNL     1     -14.130  76.147 101.936  0.00  0.00    +0.000 C 
ATOM      4  C12 UNL     1     -13.471  77.198 102.841  0.00  0.00    +0.000 C 
ATOM      5  C13 UNL     1     -14.005  76.897 104.261  0.00  0.00    +0.000 C 
ATOM      6  C14 UNL     1     -15.396  77.559 104.439  0.00  0.00    +0.000 C 
ATOM      7  C15 UNL     1     -15.348  79.062 104.195  0.00  0.00    +0.000 C 
ATOM      8  C16 UNL     1     -14.935  79.432 102.747  0.00  0.00    +0.000 C 
ATOM      9  C17 UNL     1     -13.660  78.653 102.279  0.00  0.00    +0.000 C 
ATOM     10  C18 UNL     1     -12.392  79.524 102.381  0.00  0.00    +0.000 C 
ATOM     11  C19 UNL     1     -12.490  80.772 101.488  0.00  0.00    +0.000 C 
ATOM     12  C20 UNL     1     -13.773  81.516 101.523  0.00  0.00    +0.000 C 
ATOM     13  C21 UNL     1     -14.897  81.025 102.501  0.00  0.00    +0.000 C 
ATOM     14  C22 UNL     1     -16.236  81.486 101.932  0.00  0.00    +0.000 C 
ATOM     15  O3  UNL     1     -17.281  81.129 102.458  0.00  0.00    +0.000 OA
ATOM     16  C23 UNL     1     -16.293  82.401 100.734  0.00  0.00    +0.000 C 
ATOM     17  C24 UNL     1     -15.247  83.513 100.875  0.00  0.00    +0.000 C 
ATOM     18  C25 UNL     1     -13.802  82.965 100.979  0.00  0.00    +0.000 C 
ATOM     19  C26 UNL     1     -14.673  81.821 103.819  0.00  0.00    +0.000 C 
ATOM     20  O5  UNL     1     -13.467  80.629 100.473  0.00  0.00    +0.000 OA
ATOM     21  C27 UNL     1     -12.991  77.396 105.325  0.00  0.00    +0.000 C 
ENDROOT
BRANCH   1  22
ATOM     22  C7  UNL     1     -15.036  74.647 105.330  0.00  0.00    +0.000 C 
ATOM     23  C8  UNL     1     -14.232  73.994 106.474  0.00  0.00    +0.000 C 
BRANCH  22  30
ATOM     24  C1  UNL     1     -17.116  69.917 105.035  0.00  0.00    +0.000 C 
ATOM     25  C2  UNL     1     -17.238  71.411 104.922  0.00  0.00    +0.000 C 
ATOM     26  C3  UNL     1     -18.345  71.962 104.391  0.00  0.00    +0.000 C 
ATOM     27  C4  UNL     1     -18.438  73.430 104.281  0.00  0.00    +0.000 C 
ATOM     28  O1  UNL     1     -19.523  73.986 103.964  0.00  0.00    +0.000 OA
ATOM     29  O2  UNL     1     -17.312  74.210 104.548  0.00  0.00    +0.000 OA
ATOM     30  C5  UNL     1     -16.022  73.614 104.699  0.00  0.00    +0.000 C 
ATOM     31  C6  UNL     1     -16.144  72.291 105.493  0.00  0.00    +0.000 C 
BRANCH  26  32
ATOM     32  O6  UNL     1     -19.391  71.152 103.944  0.00  0.00    +0.000 OA
ATOM     33  H38 UNL     1     -19.901  70.545 104.574  0.00  0.00    +0.000 HD
ENDBRANCH  26  32
ENDBRANCH  22  30
ENDBRANCH   1  22
BRANCH  18  34
ATOM     34  O4  UNL     1     -13.029  83.788 101.813  0.00  0.00    +0.000 OA
ATOM     35  H31 UNL     1     -13.631  84.115 102.531  0.00  0.00    +0.000 HD
ENDBRANCH  18  34
TORSDOF 4
ENDMDL
MODEL 9
REMARK VINA RESULT:      -7.7      2.505      8.174
REMARK  Name = .\Withaferin A.pdb
REMARK  8 active torsions:
REMARK  status: ('A' for Active; 'I' for Inactive)
REMARK    1  A    between atoms: C1_1  and  C2_2
REMARK    2  A    between atoms: C3_3  and  O6_33
REMARK    3  A    between atoms: C5_7  and  C7_9
REMARK    4  A    between atoms: C7_9  and  C8_10
REMARK    5  A    between atoms: C7_9  and  C9_11
REMARK    6  A    between atoms: C13_15  and  C27_32
REMARK    7  A    between atoms: C21_23  and  C26_30
REMARK    8  A    between atoms: C25_28  and  O4_29
REMARK                            x       y       z     vdW  Elec       q    Type
REMARK                         _______ _______ _______ _____ _____    ______ ____
ROOT
ATOM      1  C9  UNL     1     -15.515  78.432 100.784  0.00  0.00    +0.000 C 
ATOM      2  C10 UNL     1     -15.968  79.800 100.250  0.00  0.00    +0.000 C 
ATOM      3  C11 UNL     1     -15.145  80.861 100.969  0.00  0.00    +0.000 C 
ATOM      4  C12 UNL     1     -14.180  80.122 101.907  0.00  0.00    +0.000 C 
ATOM      5  C13 UNL     1     -14.842  78.748 102.163  0.00  0.00    +0.000 C 
ATOM      6  C14 UNL     1     -15.895  78.886 103.293  0.00  0.00    +0.000 C 
ATOM      7  C15 UNL     1     -15.286  79.431 104.578  0.00  0.00    +0.000 C 
ATOM      8  C16 UNL     1     -14.709  80.862 104.420  0.00  0.00    +0.000 C 
ATOM      9  C17 UNL     1     -13.795  80.995 103.156  0.00  0.00    +0.000 C 
ATOM     10  C18 UNL     1     -12.300  80.921 103.524  0.00  0.00    +0.000 C 
ATOM     11  C19 UNL     1     -11.895  82.061 104.474  0.00  0.00    +0.000 C 
ATOM     12  C20 UNL     1     -12.812  82.341 105.605  0.00  0.00    +0.000 C 
ATOM     13  C21 UNL     1     -14.075  81.429 105.790  0.00  0.00    +0.000 C 
ATOM     14  C22 UNL     1     -15.125  82.244 106.539  0.00  0.00    +0.000 C 
ATOM     15  O3  UNL     1     -16.248  81.788 106.709  0.00  0.00    +0.000 OA
ATOM     16  C23 UNL     1     -14.794  83.605 107.100  0.00  0.00    +0.000 C 
ATOM     17  C24 UNL     1     -13.417  83.571 107.775  0.00  0.00    +0.000 C 
ATOM     18  C25 UNL     1     -12.282  83.176 106.797  0.00  0.00    +0.000 C 
ATOM     19  C26 UNL     1     -13.624  80.290 106.748  0.00  0.00    +0.000 C 
ATOM     20  O5  UNL     1     -12.815  83.137 104.443  0.00  0.00    +0.000 OA
ATOM     21  C27 UNL     1     -13.757  77.694 102.514  0.00  0.00    +0.000 C 
ENDROOT
BRANCH   1  22
ATOM     22  C7  UNL     1     -16.673  77.368 100.745  0.00  0.00    +0.000 C 
ATOM     23  C8  UNL     1     -18.070  78.018 100.812  0.00  0.00    +0.000 C 
BRANCH  22  30
ATOM     24  C1  UNL     1     -18.678  74.059 104.182  0.00  0.00    +0.000 C 
ATOM     25  C2  UNL     1     -17.617  74.426 103.182  0.00  0.00    +0.000 C 
ATOM     26  C3  UNL     1     -16.500  73.683 103.074  0.00  0.00    +0.000 C 
ATOM     27  C4  UNL     1     -15.469  74.068 102.093  0.00  0.00    +0.000 C 
ATOM     28  O1  UNL     1     -14.504  73.301 101.836  0.00  0.00    +0.000 OA
ATOM     29  O2  UNL     1     -15.575  75.293 101.433  0.00  0.00    +0.000 OA
ATOM     30  C5  UNL     1     -16.527  76.275 101.850  0.00  0.00    +0.000 C 
ATOM     31  C6  UNL     1     -17.858  75.586 102.236  0.00  0.00    +0.000 C 
BRANCH  26  32
ATOM     32  O6  UNL     1     -16.318  72.562 103.888  0.00  0.00    +0.000 OA
ATOM     33  H38 UNL     1     -15.570  71.900 103.721  0.00  0.00    +0.000 HD
ENDBRANCH  26  32
ENDBRANCH  22  30
ENDBRANCH   1  22
BRANCH  18  34
ATOM     34  O4  UNL     1     -11.292  82.444 107.471  0.00  0.00    +0.000 OA
ATOM     35  H31 UNL     1     -11.120  82.916 108.327  0.00  0.00    +0.000 HD
ENDBRANCH  18  34
TORSDOF 4
ENDMDL
