MODEL 1
REMARK VINA RESULT:       2.3      0.000      0.000
REMARK  Name = .\Withaferin A.pdb
REMARK  8 active torsions:
REMARK  status: ('A' for Active; 'I' for Inactive)
REMARK    1  A    between atoms: C1_1  and  C2_2
REMARK    2  A    between atoms: C3_3  and  O6_33
REMARK    3  A    between atoms: C5_7  and  C7_9
REMARK    4  A    between atoms: C7_9  and  C8_10
REMARK    5  A    between atoms: C7_9  and  C9_11
REMARK    6  A    between atoms: C13_15  and  C27_32
REMARK    7  A    between atoms: C21_23  and  C26_30
REMARK    8  A    between atoms: C25_28  and  O4_29
REMARK                            x       y       z     vdW  Elec       q    Type
REMARK                         _______ _______ _______ _____ _____    ______ ____
ROOT
ATOM      1  C9  UNL     1      -0.012  96.445 116.356  0.00  0.00    +0.000 C 
ATOM      2  C10 UNL     1       1.482  96.524 116.006  0.00  0.00    +0.000 C 
ATOM      3  C11 UNL     1       1.669  95.818 114.669  0.00  0.00    +0.000 C 
ATOM      4  C12 UNL     1       0.281  95.349 114.209  0.00  0.00    +0.000 C 
ATOM      5  C13 UNL     1      -0.557  95.249 115.505  0.00  0.00    +0.000 C 
ATOM      6  C14 UNL     1      -0.282  93.886 116.193  0.00  0.00    +0.000 C 
ATOM      7  C15 UNL     1      -0.581  92.711 115.273  0.00  0.00    +0.000 C 
ATOM      8  C16 UNL     1       0.315  92.684 114.007  0.00  0.00    +0.000 C 
ATOM      9  C17 UNL     1       0.370  94.076 113.293  0.00  0.00    +0.000 C 
ATOM     10  C18 UNL     1      -0.572  94.127 112.073  0.00  0.00    +0.000 C 
ATOM     11  C19 UNL     1      -0.184  93.081 111.014  0.00  0.00    +0.000 C 
ATOM     12  C20 UNL     1       0.135  91.721 111.510  0.00  0.00    +0.000 C 
ATOM     13  C21 UNL     1      -0.007  91.430 113.046  0.00  0.00    +0.000 C 
ATOM     14  C22 UNL     1       0.930  90.274 113.384  0.00  0.00    +0.000 C 
ATOM     15  O3  UNL     1       1.085  89.931 114.548  0.00  0.00    +0.000 OA
ATOM     16  C23 UNL     1       1.659  89.525 112.296  0.00  0.00    +0.000 C 
ATOM     17  C24 UNL     1       0.708  89.249 111.125  0.00  0.00    +0.000 C 
ATOM     18  C25 UNL     1       0.137  90.547 110.501  0.00  0.00    +0.000 C 
ATOM     19  C26 UNL     1      -1.458  90.900 113.232  0.00  0.00    +0.000 C 
ATOM     20  O5  UNL     1       1.151  92.634 111.168  0.00  0.00    +0.000 OA
ATOM     21  C27 UNL     1      -2.063  95.432 115.176  0.00  0.00    +0.000 C 
ENDROOT
BRANCH   1  22
ATOM     22  C7  UNL     1      -0.256  96.426 117.911  0.00  0.00    +0.000 C 
ATOM     23  C8  UNL     1       1.029  96.101 118.702  0.00  0.00    +0.000 C 
BRANCH  22  30
ATOM     24  C1  UNL     1      -5.075  94.601 117.431  0.00  0.00    +0.000 C 
ATOM     25  C2  UNL     1      -3.617  94.389 117.734  0.00  0.00    +0.000 C 
ATOM     26  C3  UNL     1      -3.197  93.223 118.259  0.00  0.00    +0.000 C 
ATOM     27  C4  UNL     1      -1.764  93.041 118.558  0.00  0.00    +0.000 C 
ATOM     28  O1  UNL     1      -1.310  91.910 118.874  0.00  0.00    +0.000 OA
ATOM     29  O2  UNL     1      -0.903  94.136 118.474  0.00  0.00    +0.000 OA
ATOM     30  C5  UNL     1      -1.411  95.464 118.331  0.00  0.00    +0.000 C 
ATOM     31  C6  UNL     1      -2.616  95.464 117.360  0.00  0.00    +0.000 C 
BRANCH  26  32
ATOM     32  O6  UNL     1      -4.109  92.199 118.523  0.00  0.00    +0.000 OA
ATOM     33  H38 UNL     1      -3.840  91.365 119.031  0.00  0.00    +0.000 HD
ENDBRANCH  26  32
ENDBRANCH  22  30
ENDBRANCH   1  22
BRANCH  18  34
ATOM     34  O4  UNL     1      -1.171  90.330 110.040  0.00  0.00    +0.000 OA
ATOM     35  H31 UNL     1      -1.111  89.652 109.317  0.00  0.00    +0.000 HD
ENDBRANCH  18  34
TORSDOF 4
ENDMDL
MODEL 2
REMARK VINA RESULT:       5.2      1.798      2.696
REMARK  Name = .\Withaferin A.pdb
REMARK  8 active torsions:
REMARK  status: ('A' for Active; 'I' for Inactive)
REMARK    1  A    between atoms: C1_1  and  C2_2
REMARK    2  A    between atoms: C3_3  and  O6_33
REMARK    3  A    between atoms: C5_7  and  C7_9
REMARK    4  A    between atoms: C7_9  and  C8_10
REMARK    5  A    between atoms: C7_9  and  C9_11
REMARK    6  A    between atoms: C13_15  and  C27_32
REMARK    7  A    between atoms: C21_23  and  C26_30
REMARK    8  A    between atoms: C25_28  and  O4_29
REMARK                            x       y       z     vdW  Elec       q    Type
REMARK                         _______ _______ _______ _____ _____    ______ ____
ROOT
ATOM      1  C9  UNL     1      -3.033  95.731 116.639  0.00  0.00    +0.000 C 
ATOM      2  C10 UNL     1      -1.896  96.618 116.107  0.00  0.00    +0.000 C 
ATOM      3  C11 UNL     1      -1.521  96.092 114.728  0.00  0.00    +0.000 C 
ATOM      4  C12 UNL     1      -2.458  94.913 114.426  0.00  0.00    +0.000 C 
ATOM      5  C13 UNL     1      -2.924  94.407 115.811  0.00  0.00    +0.000 C 
ATOM      6  C14 UNL     1      -1.851  93.454 116.398  0.00  0.00    +0.000 C 
ATOM      7  C15 UNL     1      -1.560  92.280 115.472  0.00  0.00    +0.000 C 
ATOM      8  C16 UNL     1      -0.973  92.715 114.104  0.00  0.00    +0.000 C 
ATOM      9  C17 UNL     1      -1.794  93.876 113.450  0.00  0.00    +0.000 C 
ATOM     10  C18 UNL     1      -2.752  93.352 112.361  0.00  0.00    +0.000 C 
ATOM     11  C19 UNL     1      -1.987  92.665 111.218  0.00  0.00    +0.000 C 
ATOM     12  C20 UNL     1      -0.904  91.731 111.610  0.00  0.00    +0.000 C 
ATOM     13  C21 UNL     1      -0.662  91.462 113.137  0.00  0.00    +0.000 C 
ATOM     14  C22 UNL     1       0.794  91.038 113.304  0.00  0.00    +0.000 C 
ATOM     15  O3  UNL     1       1.262  90.879 114.423  0.00  0.00    +0.000 OA
ATOM     16  C23 UNL     1       1.670  90.786 112.102  0.00  0.00    +0.000 C 
ATOM     17  C24 UNL     1       0.893  89.988 111.047  0.00  0.00    +0.000 C 
ATOM     18  C25 UNL     1      -0.379  90.724 110.558  0.00  0.00    +0.000 C 
ATOM     19  C26 UNL     1      -1.533  90.221 113.480  0.00  0.00    +0.000 C 
ATOM     20  O5  UNL     1      -0.623  93.043 111.183  0.00  0.00    +0.000 OA
ATOM     21  C27 UNL     1      -4.304  93.707 115.681  0.00  0.00    +0.000 C 
ENDROOT
BRANCH   1  22
ATOM     22  C7  UNL     1      -3.023  95.633 118.209  0.00  0.00    +0.000 C 
ATOM     23  C8  UNL     1      -3.047  97.021 118.884  0.00  0.00    +0.000 C 
BRANCH  22  30
ATOM     24  C1  UNL     1      -0.797  91.104 119.358  0.00  0.00    +0.000 C 
ATOM     25  C2  UNL     1      -0.702  92.529 118.887  0.00  0.00    +0.000 C 
ATOM     26  C3  UNL     1       0.501  93.117 118.746  0.00  0.00    +0.000 C 
ATOM     27  C4  UNL     1       0.569  94.519 118.293  0.00  0.00    +0.000 C 
ATOM     28  O1  UNL     1       1.670  95.041 117.975  0.00  0.00    +0.000 OA
ATOM     29  O2  UNL     1      -0.605  95.268 118.203  0.00  0.00    +0.000 OA
ATOM     30  C5  UNL     1      -1.832  94.784 118.754  0.00  0.00    +0.000 C 
ATOM     31  C6  UNL     1      -1.965  93.265 118.488  0.00  0.00    +0.000 C 
BRANCH  26  32
ATOM     32  O6  UNL     1       1.670  92.409 119.032  0.00  0.00    +0.000 OA
ATOM     33  H38 UNL     1       1.685  91.659 119.713  0.00  0.00    +0.000 HD
ENDBRANCH  26  32
ENDBRANCH  22  30
ENDBRANCH   1  22
BRANCH  18  34
ATOM     34  O4  UNL     1      -1.390  89.799 110.255  0.00  0.00    +0.000 OA
ATOM     35  H31 UNL     1      -1.718  90.021 109.345  0.00  0.00    +0.000 HD
ENDBRANCH  18  34
TORSDOF 4
ENDMDL
