MODEL 1
REMARK VINA RESULT:      -4.0      0.000      0.000
REMARK  Name = .\Withaferin A.pdb
REMARK  8 active torsions:
REMARK  status: ('A' for Active; 'I' for Inactive)
REMARK    1  A    between atoms: C1_1  and  C2_2
REMARK    2  A    between atoms: C3_3  and  O6_33
REMARK    3  A    between atoms: C5_7  and  C7_9
REMARK    4  A    between atoms: C7_9  and  C8_10
REMARK    5  A    between atoms: C7_9  and  C9_11
REMARK    6  A    between atoms: C13_15  and  C27_32
REMARK    7  A    between atoms: C21_23  and  C26_30
REMARK    8  A    between atoms: C25_28  and  O4_29
REMARK                            x       y       z     vdW  Elec       q    Type
REMARK                         _______ _______ _______ _____ _____    ______ ____
ROOT
ATOM      1  C9  UNL     1     -17.335  82.991  64.447  0.00  0.00    +0.000 C 
ATOM      2  C10 UNL     1     -18.440  82.218  65.185  0.00  0.00    +0.000 C 
ATOM      3  C11 UNL     1     -18.068  80.743  65.137  0.00  0.00    +0.000 C 
ATOM      4  C12 UNL     1     -16.725  80.641  64.399  0.00  0.00    +0.000 C 
ATOM      5  C13 UNL     1     -16.644  81.921  63.535  0.00  0.00    +0.000 C 
ATOM      6  C14 UNL     1     -17.430  81.703  62.216  0.00  0.00    +0.000 C 
ATOM      7  C15 UNL     1     -16.914  80.501  61.436  0.00  0.00    +0.000 C 
ATOM      8  C16 UNL     1     -17.078  79.162  62.201  0.00  0.00    +0.000 C 
ATOM      9  C17 UNL     1     -16.560  79.256  63.675  0.00  0.00    +0.000 C 
ATOM     10  C18 UNL     1     -15.152  78.646  63.823  0.00  0.00    +0.000 C 
ATOM     11  C19 UNL     1     -15.140  77.153  63.454  0.00  0.00    +0.000 C 
ATOM     12  C20 UNL     1     -15.871  76.768  62.222  0.00  0.00    +0.000 C 
ATOM     13  C21 UNL     1     -16.536  77.898  61.360  0.00  0.00    +0.000 C 
ATOM     14  C22 UNL     1     -17.690  77.267  60.586  0.00  0.00    +0.000 C 
ATOM     15  O3  UNL     1     -18.440  77.970  59.923  0.00  0.00    +0.000 OA
ATOM     16  C23 UNL     1     -17.911  75.774  60.606  0.00  0.00    +0.000 C 
ATOM     17  C24 UNL     1     -16.570  75.045  60.453  0.00  0.00    +0.000 C 
ATOM     18  C25 UNL     1     -15.571  75.388  61.586  0.00  0.00    +0.000 C 
ATOM     19  C26 UNL     1     -15.461  78.303  60.312  0.00  0.00    +0.000 C 
ATOM     20  O5  UNL     1     -16.435  76.581  63.499  0.00  0.00    +0.000 OA
ATOM     21  C27 UNL     1     -15.159  82.286  63.266  0.00  0.00    +0.000 C 
ENDROOT
BRANCH   1  22
ATOM     22  C7  UNL     1     -17.879  84.306  63.775  0.00  0.00    +0.000 C 
ATOM     23  C8  UNL     1     -18.150  84.124  62.266  0.00  0.00    +0.000 C 
BRANCH  22  30
ATOM     24  C1  UNL     1     -14.937  87.272  66.829  0.00  0.00    +0.000 C 
ATOM     25  C2  UNL     1     -15.233  86.659  65.488  0.00  0.00    +0.000 C 
ATOM     26  C3  UNL     1     -14.548  87.053  64.398  0.00  0.00    +0.000 C 
ATOM     27  C4  UNL     1     -14.862  86.446  63.091  0.00  0.00    +0.000 C 
ATOM     28  O1  UNL     1     -14.126  86.652  62.091  0.00  0.00    +0.000 OA
ATOM     29  O2  UNL     1     -15.981  85.621  62.970  0.00  0.00    +0.000 OA
ATOM     30  C5  UNL     1     -16.951  85.537  64.017  0.00  0.00    +0.000 C 
ATOM     31  C6  UNL     1     -16.242  85.533  65.392  0.00  0.00    +0.000 C 
BRANCH  26  32
ATOM     32  O6  UNL     1     -13.556  88.031  64.503  0.00  0.00    +0.000 OA
ATOM     33  H38 UNL     1     -12.587  87.830  64.292  0.00  0.00    +0.000 HD
ENDBRANCH  26  32
ENDBRANCH  22  30
ENDBRANCH   1  22
BRANCH  18  34
ATOM     34  O4  UNL     1     -14.256  75.381  61.093  0.00  0.00    +0.000 OA
ATOM     35  H31 UNL     1     -13.949  74.437  61.113  0.00  0.00    +0.000 HD
ENDBRANCH  18  34
TORSDOF 4
ENDMDL
MODEL 2
REMARK VINA RESULT:      -3.5      1.522      2.734
REMARK  Name = .\Withaferin A.pdb
REMARK  8 active torsions:
REMARK  status: ('A' for Active; 'I' for Inactive)
REMARK    1  A    between atoms: C1_1  and  C2_2
REMARK    2  A    between atoms: C3_3  and  O6_33
REMARK    3  A    between atoms: C5_7  and  C7_9
REMARK    4  A    between atoms: C7_9  and  C8_10
REMARK    5  A    between atoms: C7_9  and  C9_11
REMARK    6  A    between atoms: C13_15  and  C27_32
REMARK    7  A    between atoms: C21_23  and  C26_30
REMARK    8  A    between atoms: C25_28  and  O4_29
REMARK                            x       y       z     vdW  Elec       q    Type
REMARK                         _______ _______ _______ _____ _____    ______ ____
ROOT
ATOM      1  C9  UNL     1     -18.308  82.157  64.247  0.00  0.00    +0.000 C 
ATOM      2  C10 UNL     1     -18.440  82.864  62.889  0.00  0.00    +0.000 C 
ATOM      3  C11 UNL     1     -18.433  81.783  61.816  0.00  0.00    +0.000 C 
ATOM      4  C12 UNL     1     -18.330  80.432  62.539  0.00  0.00    +0.000 C 
ATOM      5  C13 UNL     1     -17.691  80.758  63.909  0.00  0.00    +0.000 C 
ATOM      6  C14 UNL     1     -16.150  80.836  63.753  0.00  0.00    +0.000 C 
ATOM      7  C15 UNL     1     -15.567  79.549  63.187  0.00  0.00    +0.000 C 
ATOM      8  C16 UNL     1     -16.076  79.226  61.758  0.00  0.00    +0.000 C 
ATOM      9  C17 UNL     1     -17.634  79.344  61.645  0.00  0.00    +0.000 C 
ATOM     10  C18 UNL     1     -18.315  77.962  61.710  0.00  0.00    +0.000 C 
ATOM     11  C19 UNL     1     -17.864  77.053  60.555  0.00  0.00    +0.000 C 
ATOM     12  C20 UNL     1     -16.412  77.029  60.257  0.00  0.00    +0.000 C 
ATOM     13  C21 UNL     1     -15.445  77.865  61.167  0.00  0.00    +0.000 C 
ATOM     14  C22 UNL     1     -14.205  78.194  60.342  0.00  0.00    +0.000 C 
ATOM     15  O3  UNL     1     -13.346  78.938  60.795  0.00  0.00    +0.000 OA
ATOM     16  C23 UNL     1     -14.006  77.595  58.971  0.00  0.00    +0.000 C 
ATOM     17  C24 UNL     1     -14.377  76.107  58.992  0.00  0.00    +0.000 C 
ATOM     18  C25 UNL     1     -15.852  75.865  59.402  0.00  0.00    +0.000 C 
ATOM     19  C26 UNL     1     -14.990  76.889  62.290  0.00  0.00    +0.000 C 
ATOM     20  O5  UNL     1     -17.307  77.789  59.481  0.00  0.00    +0.000 OA
ATOM     21  C27 UNL     1     -18.109  79.690  64.955  0.00  0.00    +0.000 C 
ENDROOT
BRANCH   1  22
ATOM     22  C7  UNL     1     -17.579  83.056  65.314  0.00  0.00    +0.000 C 
ATOM     23  C8  UNL     1     -18.411  83.229  66.602  0.00  0.00    +0.000 C 
BRANCH  22  30
ATOM     24  C1  UNL     1     -16.762  88.140  65.837  0.00  0.00    +0.000 C 
ATOM     25  C2  UNL     1     -16.410  86.812  65.225  0.00  0.00    +0.000 C 
ATOM     26  C3  UNL     1     -15.533  86.747  64.206  0.00  0.00    +0.000 C 
ATOM     27  C4  UNL     1     -15.211  85.435  63.614  0.00  0.00    +0.000 C 
ATOM     28  O1  UNL     1     -14.267  85.314  62.791  0.00  0.00    +0.000 OA
ATOM     29  O2  UNL     1     -15.955  84.315  63.987  0.00  0.00    +0.000 OA
ATOM     30  C5  UNL     1     -17.159  84.448  64.746  0.00  0.00    +0.000 C 
ATOM     31  C6  UNL     1     -16.981  85.543  65.825  0.00  0.00    +0.000 C 
BRANCH  26  32
ATOM     32  O6  UNL     1     -14.941  87.911  63.710  0.00  0.00    +0.000 OA
ATOM     33  H38 UNL     1     -15.310  88.390  62.897  0.00  0.00    +0.000 HD
ENDBRANCH  26  32
ENDBRANCH  22  30
ENDBRANCH   1  22
BRANCH  18  34
ATOM     34  O4  UNL     1     -15.966  74.665  60.122  0.00  0.00    +0.000 OA
ATOM     35  H31 UNL     1     -16.580  74.844  60.881  0.00  0.00    +0.000 HD
ENDBRANCH  18  34
TORSDOF 4
ENDMDL
MODEL 3
REMARK VINA RESULT:      -3.4      1.825      8.173
REMARK  Name = .\Withaferin A.pdb
REMARK  8 active torsions:
REMARK  status: ('A' for Active; 'I' for Inactive)
REMARK    1  A    between atoms: C1_1  and  C2_2
REMARK    2  A    between atoms: C3_3  and  O6_33
REMARK    3  A    between atoms: C5_7  and  C7_9
REMARK    4  A    between atoms: C7_9  and  C8_10
REMARK    5  A    between atoms: C7_9  and  C9_11
REMARK    6  A    between atoms: C13_15  and  C27_32
REMARK    7  A    between atoms: C21_23  and  C26_30
REMARK    8  A    between atoms: C25_28  and  O4_29
REMARK                            x       y       z     vdW  Elec       q    Type
REMARK                         _______ _______ _______ _____ _____    ______ ____
ROOT
ATOM      1  C9  UNL     1     -16.697  78.204  64.090  0.00  0.00    +0.000 C 
ATOM      2  C10 UNL     1     -15.801  78.379  65.327  0.00  0.00    +0.000 C 
ATOM      3  C11 UNL     1     -16.082  79.763  65.896  0.00  0.00    +0.000 C 
ATOM      4  C12 UNL     1     -17.169  80.399  65.016  0.00  0.00    +0.000 C 
ATOM      5  C13 UNL     1     -17.068  79.664  63.660  0.00  0.00    +0.000 C 
ATOM      6  C14 UNL     1     -15.945  80.309  62.806  0.00  0.00    +0.000 C 
ATOM      7  C15 UNL     1     -16.177  81.799  62.589  0.00  0.00    +0.000 C 
ATOM      8  C16 UNL     1     -16.169  82.616  63.907  0.00  0.00    +0.000 C 
ATOM      9  C17 UNL     1     -17.072  81.967  65.010  0.00  0.00    +0.000 C 
ATOM     10  C18 UNL     1     -18.439  82.671  65.113  0.00  0.00    +0.000 C 
ATOM     11  C19 UNL     1     -18.286  84.153  65.494  0.00  0.00    +0.000 C 
ATOM     12  C20 UNL     1     -17.233  84.917  64.782  0.00  0.00    +0.000 C 
ATOM     13  C21 UNL     1     -16.408  84.191  63.662  0.00  0.00    +0.000 C 
ATOM     14  C22 UNL     1     -15.062  84.900  63.549  0.00  0.00    +0.000 C 
ATOM     15  O3  UNL     1     -14.191  84.450  62.817  0.00  0.00    +0.000 OA
ATOM     16  C23 UNL     1     -14.790  86.172  64.315  0.00  0.00    +0.000 C 
ATOM     17  C24 UNL     1     -16.006  87.102  64.230  0.00  0.00    +0.000 C 
ATOM     18  C25 UNL     1     -17.289  86.464  64.819  0.00  0.00    +0.000 C 
ATOM     19  C26 UNL     1     -17.175  84.473  62.338  0.00  0.00    +0.000 C 
ATOM     20  O5  UNL     1     -17.029  84.426  66.086  0.00  0.00    +0.000 OA
ATOM     21  C27 UNL     1     -18.438  79.705  62.931  0.00  0.00    +0.000 C 
ENDROOT
BRANCH   1  22
ATOM     22  C7  UNL     1     -16.048  77.252  63.019  0.00  0.00    +0.000 C 
ATOM     23  C8  UNL     1     -14.714  76.646  63.504  0.00  0.00    +0.000 C 
BRANCH  22  30
ATOM     24  C1  UNL     1     -13.190  78.473  58.880  0.00  0.00    +0.000 C 
ATOM     25  C2  UNL     1     -14.514  78.123  59.502  0.00  0.00    +0.000 C 
ATOM     26  C3  UNL     1     -15.649  78.239  58.788  0.00  0.00    +0.000 C 
ATOM     27  C4  UNL     1     -16.937  77.900  59.421  0.00  0.00    +0.000 C 
ATOM     28  O1  UNL     1     -17.991  77.819  58.737  0.00  0.00    +0.000 OA
ATOM     29  O2  UNL     1     -16.981  77.652  60.794  0.00  0.00    +0.000 OA
ATOM     30  C5  UNL     1     -15.859  77.942  61.631  0.00  0.00    +0.000 C 
ATOM     31  C6  UNL     1     -14.548  77.555  60.906  0.00  0.00    +0.000 C 
BRANCH  26  32
ATOM     32  O6  UNL     1     -15.608  78.681  57.463  0.00  0.00    +0.000 OA
ATOM     33  H38 UNL     1     -16.209  79.425  57.132  0.00  0.00    +0.000 HD
ENDBRANCH  26  32
ENDBRANCH  22  30
ENDBRANCH   1  22
BRANCH  18  34
ATOM     34  O4  UNL     1     -18.419  86.903  64.111  0.00  0.00    +0.000 OA
ATOM     35  H31 UNL     1     -19.106  86.192  64.200  0.00  0.00    +0.000 HD
ENDBRANCH  18  34
TORSDOF 4
ENDMDL
MODEL 4
REMARK VINA RESULT:      -2.8      2.016      3.391
REMARK  Name = .\Withaferin A.pdb
REMARK  8 active torsions:
REMARK  status: ('A' for Active; 'I' for Inactive)
REMARK    1  A    between atoms: C1_1  and  C2_2
REMARK    2  A    between atoms: C3_3  and  O6_33
REMARK    3  A    between atoms: C5_7  and  C7_9
REMARK    4  A    between atoms: C7_9  and  C8_10
REMARK    5  A    between atoms: C7_9  and  C9_11
REMARK    6  A    between atoms: C13_15  and  C27_32
REMARK    7  A    between atoms: C21_23  and  C26_30
REMARK    8  A    between atoms: C25_28  and  O4_29
REMARK                            x       y       z     vdW  Elec       q    Type
REMARK                         _______ _______ _______ _____ _____    ______ ____
ROOT
ATOM      1  C9  UNL     1     -18.352  81.702  64.048  0.00  0.00    +0.000 C 
ATOM      2  C10 UNL     1     -18.436  82.402  62.683  0.00  0.00    +0.000 C 
ATOM      3  C11 UNL     1     -18.440  81.315  61.617  0.00  0.00    +0.000 C 
ATOM      4  C12 UNL     1     -18.390  79.966  62.351  0.00  0.00    +0.000 C 
ATOM      5  C13 UNL     1     -17.770  80.283  63.731  0.00  0.00    +0.000 C 
ATOM      6  C14 UNL     1     -16.224  80.316  63.606  0.00  0.00    +0.000 C 
ATOM      7  C15 UNL     1     -15.668  79.008  63.059  0.00  0.00    +0.000 C 
ATOM      8  C16 UNL     1     -16.158  78.689  61.623  0.00  0.00    +0.000 C 
ATOM      9  C17 UNL     1     -17.708  78.852  61.478  0.00  0.00    +0.000 C 
ATOM     10  C18 UNL     1     -18.431  77.491  61.539  0.00  0.00    +0.000 C 
ATOM     11  C19 UNL     1     -17.984  76.562  60.398  0.00  0.00    +0.000 C 
ATOM     12  C20 UNL     1     -16.527  76.493  60.130  0.00  0.00    +0.000 C 
ATOM     13  C21 UNL     1     -15.555  77.307  61.054  0.00  0.00    +0.000 C 
ATOM     14  C22 UNL     1     -14.289  77.594  60.251  0.00  0.00    +0.000 C 
ATOM     15  O3  UNL     1     -13.418  78.316  60.717  0.00  0.00    +0.000 OA
ATOM     16  C23 UNL     1     -14.081  76.980  58.889  0.00  0.00    +0.000 C 
ATOM     17  C24 UNL     1     -14.496  75.503  58.912  0.00  0.00    +0.000 C 
ATOM     18  C25 UNL     1     -15.985  75.308  59.294  0.00  0.00    +0.000 C 
ATOM     19  C26 UNL     1     -15.151  76.326  62.192  0.00  0.00    +0.000 C 
ATOM     20  O5  UNL     1     -17.385  77.273  59.331  0.00  0.00    +0.000 OA
ATOM     21  C27 UNL     1     -18.239  79.236  64.776  0.00  0.00    +0.000 C 
ENDROOT
BRANCH   1  22
ATOM     22  C7  UNL     1     -17.618  82.587  65.123  0.00  0.00    +0.000 C 
ATOM     23  C8  UNL     1     -18.414  82.689  66.442  0.00  0.00    +0.000 C 
BRANCH  22  30
ATOM     24  C1  UNL     1     -17.849  86.311  61.537  0.00  0.00    +0.000 C 
ATOM     25  C2  UNL     1     -17.781  85.880  62.976  0.00  0.00    +0.000 C 
ATOM     26  C3  UNL     1     -17.560  86.788  63.945  0.00  0.00    +0.000 C 
ATOM     27  C4  UNL     1     -17.486  86.340  65.349  0.00  0.00    +0.000 C 
ATOM     28  O1  UNL     1     -17.465  87.174  66.291  0.00  0.00    +0.000 OA
ATOM     29  O2  UNL     1     -17.454  84.974  65.631  0.00  0.00    +0.000 OA
ATOM     30  C5  UNL     1     -17.260  84.011  64.593  0.00  0.00    +0.000 C 
ATOM     31  C6  UNL     1     -18.051  84.432  63.331  0.00  0.00    +0.000 C 
BRANCH  26  32
ATOM     32  O6  UNL     1     -17.396  88.137  63.624  0.00  0.00    +0.000 OA
ATOM     33  H38 UNL     1     -16.722  88.441  62.933  0.00  0.00    +0.000 HD
ENDBRANCH  26  32
ENDBRANCH  22  30
ENDBRANCH   1  22
BRANCH  18  34
ATOM     34  O4  UNL     1     -16.148  74.116  60.019  0.00  0.00    +0.000 OA
ATOM     35  H31 UNL     1     -15.305  73.969  60.521  0.00  0.00    +0.000 HD
ENDBRANCH  18  34
TORSDOF 4
ENDMDL
MODEL 5
REMARK VINA RESULT:      -2.3      2.040      2.961
REMARK  Name = .\Withaferin A.pdb
REMARK  8 active torsions:
REMARK  status: ('A' for Active; 'I' for Inactive)
REMARK    1  A    between atoms: C1_1  and  C2_2
REMARK    2  A    between atoms: C3_3  and  O6_33
REMARK    3  A    between atoms: C5_7  and  C7_9
REMARK    4  A    between atoms: C7_9  and  C8_10
REMARK    5  A    between atoms: C7_9  and  C9_11
REMARK    6  A    between atoms: C13_15  and  C27_32
REMARK    7  A    between atoms: C21_23  and  C26_30
REMARK    8  A    between atoms: C25_28  and  O4_29
REMARK                            x       y       z     vdW  Elec       q    Type
REMARK                         _______ _______ _______ _____ _____    ______ ____
ROOT
ATOM      1  C9  UNL     1     -16.265  82.052  63.473  0.00  0.00    +0.000 C 
ATOM      2  C10 UNL     1     -15.054  81.474  64.222  0.00  0.00    +0.000 C 
ATOM      3  C11 UNL     1     -14.579  80.257  63.441  0.00  0.00    +0.000 C 
ATOM      4  C12 UNL     1     -15.487  80.130  62.209  0.00  0.00    +0.000 C 
ATOM      5  C13 UNL     1     -16.791  80.867  62.595  0.00  0.00    +0.000 C 
ATOM      6  C14 UNL     1     -17.700  79.912  63.411  0.00  0.00    +0.000 C 
ATOM      7  C15 UNL     1     -18.017  78.633  62.648  0.00  0.00    +0.000 C 
ATOM      8  C16 UNL     1     -16.759  77.782  62.334  0.00  0.00    +0.000 C 
ATOM      9  C17 UNL     1     -15.603  78.641  61.720  0.00  0.00    +0.000 C 
ATOM     10  C18 UNL     1     -15.533  78.487  60.187  0.00  0.00    +0.000 C 
ATOM     11  C19 UNL     1     -15.256  77.032  59.777  0.00  0.00    +0.000 C 
ATOM     12  C20 UNL     1     -16.032  75.983  60.483  0.00  0.00    +0.000 C 
ATOM     13  C21 UNL     1     -17.110  76.428  61.534  0.00  0.00    +0.000 C 
ATOM     14  C22 UNL     1     -17.287  75.281  62.524  0.00  0.00    +0.000 C 
ATOM     15  O3  UNL     1     -17.996  75.426  63.510  0.00  0.00    +0.000 OA
ATOM     16  C23 UNL     1     -16.614  73.949  62.295  0.00  0.00    +0.000 C 
ATOM     17  C24 UNL     1     -16.748  73.543  60.823  0.00  0.00    +0.000 C 
ATOM     18  C25 UNL     1     -16.102  74.568  59.859  0.00  0.00    +0.000 C 
ATOM     19  C26 UNL     1     -18.440  76.541  60.736  0.00  0.00    +0.000 C 
ATOM     20  O5  UNL     1     -14.700  76.273  60.835  0.00  0.00    +0.000 OA
ATOM     21  C27 UNL     1     -17.504  81.385  61.317  0.00  0.00    +0.000 C 
ENDROOT
BRANCH   1  22
ATOM     22  C7  UNL     1     -17.276  82.768  64.443  0.00  0.00    +0.000 C 
ATOM     23  C8  UNL     1     -18.437  81.844  64.866  0.00  0.00    +0.000 C 
BRANCH  22  30
ATOM     24  C1  UNL     1     -18.395  87.805  64.844  0.00  0.00    +0.000 C 
ATOM     25  C2  UNL     1     -17.949  86.623  64.029  0.00  0.00    +0.000 C 
ATOM     26  C3  UNL     1     -17.841  86.724  62.692  0.00  0.00    +0.000 C 
ATOM     27  C4  UNL     1     -17.412  85.548  61.912  0.00  0.00    +0.000 C 
ATOM     28  O1  UNL     1     -17.123  85.654  60.691  0.00  0.00    +0.000 OA
ATOM     29  O2  UNL     1     -17.311  84.308  62.543  0.00  0.00    +0.000 OA
ATOM     30  C5  UNL     1     -17.830  84.106  63.859  0.00  0.00    +0.000 C 
ATOM     31  C6  UNL     1     -17.537  85.347  64.736  0.00  0.00    +0.000 C 
BRANCH  26  32
ATOM     32  O6  UNL     1     -18.138  87.928  62.049  0.00  0.00    +0.000 OA
ATOM     33  H38 UNL     1     -19.093  88.226  61.894  0.00  0.00    +0.000 HD
ENDBRANCH  26  32
ENDBRANCH  22  30
ENDBRANCH   1  22
BRANCH  18  34
ATOM     34  O4  UNL     1     -16.824  74.628  58.656  0.00  0.00    +0.000 OA
ATOM     35  H31 UNL     1     -16.283  74.151  57.974  0.00  0.00    +0.000 HD
ENDBRANCH  18  34
TORSDOF 4
ENDMDL
MODEL 6
REMARK VINA RESULT:      -1.1      1.692      9.268
REMARK  Name = .\Withaferin A.pdb
REMARK  8 active torsions:
REMARK  status: ('A' for Active; 'I' for Inactive)
REMARK    1  A    between atoms: C1_1  and  C2_2
REMARK    2  A    between atoms: C3_3  and  O6_33
REMARK    3  A    between atoms: C5_7  and  C7_9
REMARK    4  A    between atoms: C7_9  and  C8_10
REMARK    5  A    between atoms: C7_9  and  C9_11
REMARK    6  A    between atoms: C13_15  and  C27_32
REMARK    7  A    between atoms: C21_23  and  C26_30
REMARK    8  A    between atoms: C25_28  and  O4_29
REMARK                            x       y       z     vdW  Elec       q    Type
REMARK                         _______ _______ _______ _____ _____    ______ ____
ROOT
ATOM      1  C9  UNL     1     -16.876  79.630  63.050  0.00  0.00    +0.000 C 
ATOM      2  C10 UNL     1     -16.064  79.400  64.334  0.00  0.00    +0.000 C 
ATOM      3  C11 UNL     1     -16.307  80.597  65.242  0.00  0.00    +0.000 C 
ATOM      4  C12 UNL     1     -17.289  81.525  64.511  0.00  0.00    +0.000 C 
ATOM      5  C13 UNL     1     -17.131  81.175  63.013  0.00  0.00    +0.000 C 
ATOM      6  C14 UNL     1     -15.914  81.940  62.431  0.00  0.00    +0.000 C 
ATOM      7  C15 UNL     1     -16.045  83.446  62.615  0.00  0.00    +0.000 C 
ATOM      8  C16 UNL     1     -16.087  83.877  64.104  0.00  0.00    +0.000 C 
ATOM      9  C17 UNL     1     -17.103  83.025  64.937  0.00  0.00    +0.000 C 
ATOM     10  C18 UNL     1     -18.432  83.776  65.153  0.00  0.00    +0.000 C 
ATOM     11  C19 UNL     1     -18.223  85.085  65.931  0.00  0.00    +0.000 C 
ATOM     12  C20 UNL     1     -17.080  85.932  65.513  0.00  0.00    +0.000 C 
ATOM     13  C21 UNL     1     -16.218  85.474  64.284  0.00  0.00    +0.000 C 
ATOM     14  C22 UNL     1     -14.829  86.085  64.443  0.00  0.00    +0.000 C 
ATOM     15  O3  UNL     1     -13.934  85.784  63.665  0.00  0.00    +0.000 OA
ATOM     16  C23 UNL     1     -14.542  87.081  65.540  0.00  0.00    +0.000 C 
ATOM     17  C24 UNL     1     -15.694  88.088  65.645  0.00  0.00    +0.000 C 
ATOM     18  C25 UNL     1     -17.050  87.412  65.966  0.00  0.00    +0.000 C 
ATOM     19  C26 UNL     1     -16.869  86.156  63.047  0.00  0.00    +0.000 C 
ATOM     20  O5  UNL     1     -16.999  85.096  66.643  0.00  0.00    +0.000 OA
ATOM     21  C27 UNL     1     -18.440  81.511  62.249  0.00  0.00    +0.000 C 
ENDROOT
BRANCH   1  22
ATOM     22  C7  UNL     1     -16.205  78.954  61.796  0.00  0.00    +0.000 C 
ATOM     23  C8  UNL     1     -16.224  79.871  60.555  0.00  0.00    +0.000 C 
BRANCH  22  30
ATOM     24  C1  UNL     1     -18.439  75.637  58.511  0.00  0.00    +0.000 C 
ATOM     25  C2  UNL     1     -17.525  75.917  59.672  0.00  0.00    +0.000 C 
ATOM     26  C3  UNL     1     -17.038  74.902  60.410  0.00  0.00    +0.000 C 
ATOM     27  C4  UNL     1     -16.152  75.200  61.551  0.00  0.00    +0.000 C 
ATOM     28  O1  UNL     1     -15.535  74.279  62.146  0.00  0.00    +0.000 OA
ATOM     29  O2  UNL     1     -15.986  76.524  61.961  0.00  0.00    +0.000 OA
ATOM     30  C5  UNL     1     -16.827  77.563  61.455  0.00  0.00    +0.000 C 
ATOM     31  C6  UNL     1     -17.086  77.341  59.946  0.00  0.00    +0.000 C 
BRANCH  26  32
ATOM     32  O6  UNL     1     -17.375  73.581  60.104  0.00  0.00    +0.000 OA
ATOM     33  H38 UNL     1     -18.205  73.354  59.570  0.00  0.00    +0.000 HD
ENDBRANCH  26  32
ENDBRANCH  22  30
ENDBRANCH   1  22
BRANCH  18  34
ATOM     34  O4  UNL     1     -18.099  88.108  65.344  0.00  0.00    +0.000 OA
ATOM     35  H31 UNL     1     -18.468  87.506  64.647  0.00  0.00    +0.000 HD
ENDBRANCH  18  34
TORSDOF 4
ENDMDL
