MODEL 1
REMARK VINA RESULT:      -2.5      0.000      0.000
REMARK  Name = .\Withaferin A.pdb
REMARK  8 active torsions:
REMARK  status: ('A' for Active; 'I' for Inactive)
REMARK    1  A    between atoms: C1_1  and  C2_2
REMARK    2  A    between atoms: C3_3  and  O6_33
REMARK    3  A    between atoms: C5_7  and  C7_9
REMARK    4  A    between atoms: C7_9  and  C8_10
REMARK    5  A    between atoms: C7_9  and  C9_11
REMARK    6  A    between atoms: C13_15  and  C27_32
REMARK    7  A    between atoms: C21_23  and  C26_30
REMARK    8  A    between atoms: C25_28  and  O4_29
REMARK                            x       y       z     vdW  Elec       q    Type
REMARK                         _______ _______ _______ _____ _____    ______ ____
ROOT
ATOM      1  C9  UNL     1       8.433  85.889  57.844  0.00  0.00    +0.000 C 
ATOM      2  C10 UNL     1       9.823  85.598  57.259  0.00  0.00    +0.000 C 
ATOM      3  C11 UNL     1       9.849  84.127  56.868  0.00  0.00    +0.000 C 
ATOM      4  C12 UNL     1       8.463  83.551  57.191  0.00  0.00    +0.000 C 
ATOM      5  C13 UNL     1       7.882  84.488  58.275  0.00  0.00    +0.000 C 
ATOM      6  C14 UNL     1       8.423  84.066  59.666  0.00  0.00    +0.000 C 
ATOM      7  C15 UNL     1       8.099  82.613  59.988  0.00  0.00    +0.000 C 
ATOM      8  C16 UNL     1       8.754  81.609  59.005  0.00  0.00    +0.000 C 
ATOM      9  C17 UNL     1       8.528  82.013  57.509  0.00  0.00    +0.000 C 
ATOM     10  C18 UNL     1       7.386  81.200  56.867  0.00  0.00    +0.000 C 
ATOM     11  C19 UNL     1       7.695  79.694  56.867  0.00  0.00    +0.000 C 
ATOM     12  C20 UNL     1       8.245  79.129  58.122  0.00  0.00    +0.000 C 
ATOM     13  C21 UNL     1       8.409  80.075  59.363  0.00  0.00    +0.000 C 
ATOM     14  C22 UNL     1       9.513  79.496  60.242  0.00  0.00    +0.000 C 
ATOM     15  O3  UNL     1       9.908  80.116  61.219  0.00  0.00    +0.000 OA
ATOM     16  C23 UNL     1      10.118  78.147  59.937  0.00  0.00    +0.000 C 
ATOM     17  C24 UNL     1       9.012  77.151  59.567  0.00  0.00    +0.000 C 
ATOM     18  C25 UNL     1       8.199  77.594  58.324  0.00  0.00    +0.000 C 
ATOM     19  C26 UNL     1       7.082  79.940  60.162  0.00  0.00    +0.000 C 
ATOM     20  O5  UNL     1       9.077  79.430  57.027  0.00  0.00    +0.000 OA
ATOM     21  C27 UNL     1       6.330  84.454  58.229  0.00  0.00    +0.000 C 
ENDROOT
BRANCH   1  22
ATOM     22  C7  UNL     1       8.471  87.039  58.918  0.00  0.00    +0.000 C 
ATOM     23  C8  UNL     1       9.525  86.782  60.015  0.00  0.00    +0.000 C 
BRANCH  22  30
ATOM     24  C1  UNL     1       3.358  87.766  58.579  0.00  0.00    +0.000 C 
ATOM     25  C2  UNL     1       4.562  87.245  59.314  0.00  0.00    +0.000 C 
ATOM     26  C3  UNL     1       4.444  86.809  60.582  0.00  0.00    +0.000 C 
ATOM     27  C4  UNL     1       5.641  86.312  61.287  0.00  0.00    +0.000 C 
ATOM     28  O1  UNL     1       5.538  85.730  62.399  0.00  0.00    +0.000 OA
ATOM     29  O2  UNL     1       6.898  86.478  60.704  0.00  0.00    +0.000 OA
ATOM     30  C5  UNL     1       7.074  87.315  59.559  0.00  0.00    +0.000 C 
ATOM     31  C6  UNL     1       5.885  87.131  58.585  0.00  0.00    +0.000 C 
BRANCH  26  32
ATOM     32  O6  UNL     1       3.205  86.835  61.225  0.00  0.00    +0.000 OA
ATOM     33  H38 UNL     1       2.961  86.157  61.937  0.00  0.00    +0.000 HD
ENDBRANCH  26  32
ENDBRANCH  22  30
ENDBRANCH   1  22
BRANCH  18  34
ATOM     34  O4  UNL     1       6.862  77.183  58.446  0.00  0.00    +0.000 OA
ATOM     35  H31 UNL     1       6.880  76.252  58.791  0.00  0.00    +0.000 HD
ENDBRANCH  18  34
TORSDOF 4
ENDMDL
