MODEL 1
REMARK VINA RESULT:      -8.7      0.000      0.000
REMARK  Name = .\Withaferin A.pdb
REMARK  8 active torsions:
REMARK  status: ('A' for Active; 'I' for Inactive)
REMARK    1  A    between atoms: C1_1  and  C2_2
REMARK    2  A    between atoms: C3_3  and  O6_33
REMARK    3  A    between atoms: C5_7  and  C7_9
REMARK    4  A    between atoms: C7_9  and  C8_10
REMARK    5  A    between atoms: C7_9  and  C9_11
REMARK    6  A    between atoms: C13_15  and  C27_32
REMARK    7  A    between atoms: C21_23  and  C26_30
REMARK    8  A    between atoms: C25_28  and  O4_29
REMARK                            x       y       z     vdW  Elec       q    Type
REMARK                         _______ _______ _______ _____ _____    ______ ____
ROOT
ATOM      1  C9  UNL     1       2.329  51.022   9.768  0.00  0.00    +0.000 C 
ATOM      2  C10 UNL     1       3.001  50.974  11.149  0.00  0.00    +0.000 C 
ATOM      3  C11 UNL     1       3.528  52.371  11.443  0.00  0.00    +0.000 C 
ATOM      4  C12 UNL     1       3.141  53.259  10.252  0.00  0.00    +0.000 C 
ATOM      5  C13 UNL     1       2.946  52.281   9.070  0.00  0.00    +0.000 C 
ATOM      6  C14 UNL     1       4.324  51.962   8.433  0.00  0.00    +0.000 C 
ATOM      7  C15 UNL     1       5.045  53.221   7.970  0.00  0.00    +0.000 C 
ATOM      8  C16 UNL     1       5.380  54.194   9.130  0.00  0.00    +0.000 C 
ATOM      9  C17 UNL     1       4.146  54.451  10.060  0.00  0.00    +0.000 C 
ATOM     10  C18 UNL     1       3.459  55.793   9.735  0.00  0.00    +0.000 C 
ATOM     11  C19 UNL     1       4.413  56.981   9.942  0.00  0.00    +0.000 C 
ATOM     12  C20 UNL     1       5.788  56.830   9.408  0.00  0.00    +0.000 C 
ATOM     13  C21 UNL     1       6.149  55.518   8.626  0.00  0.00    +0.000 C 
ATOM     14  C22 UNL     1       7.656  55.310   8.747  0.00  0.00    +0.000 C 
ATOM     15  O3  UNL     1       8.170  54.288   8.313  0.00  0.00    +0.000 OA
ATOM     16  C23 UNL     1       8.534  56.361   9.379  0.00  0.00    +0.000 C 
ATOM     17  C24 UNL     1       8.124  57.753   8.881  0.00  0.00    +0.000 C 
ATOM     18  C25 UNL     1       6.654  58.100   9.223  0.00  0.00    +0.000 C 
ATOM     19  C26 UNL     1       5.859  55.837   7.132  0.00  0.00    +0.000 C 
ATOM     20  O5  UNL     1       5.508  56.651  10.776  0.00  0.00    +0.000 OA
ATOM     21  C27 UNL     1       1.963  52.890   8.034  0.00  0.00    +0.000 C 
ENDROOT
BRANCH   1  22
ATOM     22  C7  UNL     1       2.410  49.639   9.021  0.00  0.00    +0.000 C 
ATOM     23  C8  UNL     1       3.841  49.063   9.007  0.00  0.00    +0.000 C 
BRANCH  22  30
ATOM     24  C1  UNL     1       2.715  48.675   3.945  0.00  0.00    +0.000 C 
ATOM     25  C2  UNL     1       1.907  48.820   5.205  0.00  0.00    +0.000 C 
ATOM     26  C3  UNL     1       0.563  48.841   5.149  0.00  0.00    +0.000 C 
ATOM     27  C4  UNL     1      -0.209  48.995   6.397  0.00  0.00    +0.000 C 
ATOM     28  O1  UNL     1      -1.457  48.836   6.407  0.00  0.00    +0.000 OA
ATOM     29  O2  UNL     1       0.460  49.305   7.582  0.00  0.00    +0.000 OA
ATOM     30  C5  UNL     1       1.834  49.701   7.571  0.00  0.00    +0.000 C 
ATOM     31  C6  UNL     1       2.618  48.850   6.544  0.00  0.00    +0.000 C 
BRANCH  26  32
ATOM     32  O6  UNL     1      -0.094  48.727   3.922  0.00  0.00    +0.000 OA
ATOM     33  H38 UNL     1      -0.335  49.540   3.369  0.00  0.00    +0.000 HD
ENDBRANCH  26  32
ENDBRANCH  22  30
ENDBRANCH   1  22
BRANCH  18  34
ATOM     34  O4  UNL     1       6.095  58.898   8.213  0.00  0.00    +0.000 OA
ATOM     35  H31 UNL     1       6.466  59.811   8.331  0.00  0.00    +0.000 HD
ENDBRANCH  18  34
TORSDOF 4
ENDMDL
MODEL 2
REMARK VINA RESULT:      -8.4      2.453      8.300
REMARK  Name = .\Withaferin A.pdb
REMARK  8 active torsions:
REMARK  status: ('A' for Active; 'I' for Inactive)
REMARK    1  A    between atoms: C1_1  and  C2_2
REMARK    2  A    between atoms: C3_3  and  O6_33
REMARK    3  A    between atoms: C5_7  and  C7_9
REMARK    4  A    between atoms: C7_9  and  C8_10
REMARK    5  A    between atoms: C7_9  and  C9_11
REMARK    6  A    between atoms: C13_15  and  C27_32
REMARK    7  A    between atoms: C21_23  and  C26_30
REMARK    8  A    between atoms: C25_28  and  O4_29
REMARK                            x       y       z     vdW  Elec       q    Type
REMARK                         _______ _______ _______ _____ _____    ______ ____
ROOT
ATOM      1  C9  UNL     1       2.784  54.454   7.349  0.00  0.00    +0.000 C 
ATOM      2  C10 UNL     1       3.853  53.670   6.571  0.00  0.00    +0.000 C 
ATOM      3  C11 UNL     1       3.625  52.192   6.856  0.00  0.00    +0.000 C 
ATOM      4  C12 UNL     1       2.400  52.095   7.777  0.00  0.00    +0.000 C 
ATOM      5  C13 UNL     1       2.313  53.473   8.474  0.00  0.00    +0.000 C 
ATOM      6  C14 UNL     1       3.274  53.496   9.691  0.00  0.00    +0.000 C 
ATOM      7  C15 UNL     1       2.971  52.378  10.680  0.00  0.00    +0.000 C 
ATOM      8  C16 UNL     1       3.159  50.962  10.076  0.00  0.00    +0.000 C 
ATOM      9  C17 UNL     1       2.454  50.815   8.687  0.00  0.00    +0.000 C 
ATOM     10  C18 UNL     1       1.099  50.088   8.811  0.00  0.00    +0.000 C 
ATOM     11  C19 UNL     1       1.269  48.664   9.364  0.00  0.00    +0.000 C 
ATOM     12  C20 UNL     1       2.180  48.506  10.524  0.00  0.00    +0.000 C 
ATOM     13  C21 UNL     1       2.843  49.789  11.137  0.00  0.00    +0.000 C 
ATOM     14  C22 UNL     1       4.137  49.357  11.820  0.00  0.00    +0.000 C 
ATOM     15  O3  UNL     1       4.898  50.198  12.281  0.00  0.00    +0.000 OA
ATOM     16  C23 UNL     1       4.488  47.896  11.959  0.00  0.00    +0.000 C 
ATOM     17  C24 UNL     1       3.249  47.099  12.385  0.00  0.00    +0.000 C 
ATOM     18  C25 UNL     1       2.089  47.209  11.364  0.00  0.00    +0.000 C 
ATOM     19  C26 UNL     1       1.876  50.255  12.262  0.00  0.00    +0.000 C 
ATOM     20  O5  UNL     1       2.594  48.187   9.216  0.00  0.00    +0.000 OA
ATOM     21  C27 UNL     1       0.847  53.761   8.896  0.00  0.00    +0.000 C 
ENDROOT
BRANCH   1  22
ATOM     22  C7  UNL     1       3.287  55.885   7.768  0.00  0.00    +0.000 C 
ATOM     23  C8  UNL     1       3.231  56.892   6.601  0.00  0.00    +0.000 C 
BRANCH  22  30
ATOM     24  C1  UNL     1       8.437  55.528   7.396  0.00  0.00    +0.000 C 
ATOM     25  C2  UNL     1       7.206  56.088   8.054  0.00  0.00    +0.000 C 
ATOM     26  C3  UNL     1       7.309  56.782   9.202  0.00  0.00    +0.000 C 
ATOM     27  C4  UNL     1       6.087  57.313   9.836  0.00  0.00    +0.000 C 
ATOM     28  O1  UNL     1       6.159  58.117  10.802  0.00  0.00    +0.000 OA
ATOM     29  O2  UNL     1       4.839  56.929   9.345  0.00  0.00    +0.000 OA
ATOM     30  C5  UNL     1       4.715  55.863   8.400  0.00  0.00    +0.000 C 
ATOM     31  C6  UNL     1       5.864  55.940   7.367  0.00  0.00    +0.000 C 
BRANCH  26  32
ATOM     32  O6  UNL     1       8.558  56.992   9.791  0.00  0.00    +0.000 OA
ATOM     33  H38 UNL     1       9.398  57.094   9.234  0.00  0.00    +0.000 HD
ENDBRANCH  26  32
ENDBRANCH  22  30
ENDBRANCH   1  22
BRANCH  18  34
ATOM     34  O4  UNL     1       0.852  47.174  12.028  0.00  0.00    +0.000 OA
ATOM     35  H31 UNL     1       0.959  47.704  12.860  0.00  0.00    +0.000 HD
ENDBRANCH  18  34
TORSDOF 4
ENDMDL
MODEL 3
REMARK VINA RESULT:      -8.4      2.785      8.660
REMARK  Name = .\Withaferin A.pdb
REMARK  8 active torsions:
REMARK  status: ('A' for Active; 'I' for Inactive)
REMARK    1  A    between atoms: C1_1  and  C2_2
REMARK    2  A    between atoms: C3_3  and  O6_33
REMARK    3  A    between atoms: C5_7  and  C7_9
REMARK    4  A    between atoms: C7_9  and  C8_10
REMARK    5  A    between atoms: C7_9  and  C9_11
REMARK    6  A    between atoms: C13_15  and  C27_32
REMARK    7  A    between atoms: C21_23  and  C26_30
REMARK    8  A    between atoms: C25_28  and  O4_29
REMARK                            x       y       z     vdW  Elec       q    Type
REMARK                         _______ _______ _______ _____ _____    ______ ____
ROOT
ATOM      1  C9  UNL     1       5.217  55.206   7.113  0.00  0.00    +0.000 C 
ATOM      2  C10 UNL     1       6.609  54.925   7.702  0.00  0.00    +0.000 C 
ATOM      3  C11 UNL     1       6.676  53.436   8.009  0.00  0.00    +0.000 C 
ATOM      4  C12 UNL     1       5.337  52.825   7.573  0.00  0.00    +0.000 C 
ATOM      5  C13 UNL     1       4.335  54.003   7.588  0.00  0.00    +0.000 C 
ATOM      6  C14 UNL     1       3.811  54.215   9.032  0.00  0.00    +0.000 C 
ATOM      7  C15 UNL     1       3.163  52.957   9.596  0.00  0.00    +0.000 C 
ATOM      8  C16 UNL     1       4.150  51.767   9.721  0.00  0.00    +0.000 C 
ATOM      9  C17 UNL     1       4.978  51.545   8.411  0.00  0.00    +0.000 C 
ATOM     10  C18 UNL     1       4.403  50.392   7.563  0.00  0.00    +0.000 C 
ATOM     11  C19 UNL     1       4.435  49.058   8.327  0.00  0.00    +0.000 C 
ATOM     12  C20 UNL     1       3.984  49.090   9.739  0.00  0.00    +0.000 C 
ATOM     13  C21 UNL     1       3.452  50.445  10.326  0.00  0.00    +0.000 C 
ATOM     14  C22 UNL     1       3.660  50.405  11.837  0.00  0.00    +0.000 C 
ATOM     15  O3  UNL     1       3.426  51.396  12.515  0.00  0.00    +0.000 OA
ATOM     16  C23 UNL     1       4.131  49.145  12.521  0.00  0.00    +0.000 C 
ATOM     17  C24 UNL     1       3.387  47.931  11.950  0.00  0.00    +0.000 C 
ATOM     18  C25 UNL     1       3.613  47.754  10.428  0.00  0.00    +0.000 C 
ATOM     19  C26 UNL     1       1.916  50.424  10.084  0.00  0.00    +0.000 C 
ATOM     20  O5  UNL     1       5.352  49.080   9.406  0.00  0.00    +0.000 OA
ATOM     21  C27 UNL     1       3.176  53.726   6.593  0.00  0.00    +0.000 C 
ENDROOT
BRANCH   1  22
ATOM     22  C7  UNL     1       4.723  56.666   7.431  0.00  0.00    +0.000 C 
ATOM     23  C8  UNL     1       4.875  57.613   6.222  0.00  0.00    +0.000 C 
BRANCH  22  30
ATOM     24  C1  UNL     1       8.249  59.718   9.675  0.00  0.00    +0.000 C 
ATOM     25  C2  UNL     1       6.882  59.091   9.652  0.00  0.00    +0.000 C 
ATOM     26  C3  UNL     1       6.078  59.181  10.728  0.00  0.00    +0.000 C 
ATOM     27  C4  UNL     1       4.746  58.550  10.687  0.00  0.00    +0.000 C 
ATOM     28  O1  UNL     1       3.901  58.767  11.595  0.00  0.00    +0.000 OA
ATOM     29  O2  UNL     1       4.416  57.714   9.619  0.00  0.00    +0.000 OA
ATOM     30  C5  UNL     1       5.412  57.277   8.691  0.00  0.00    +0.000 C 
ATOM     31  C6  UNL     1       6.385  58.438   8.378  0.00  0.00    +0.000 C 
BRANCH  26  32
ATOM     32  O6  UNL     1       6.504  59.859  11.873  0.00  0.00    +0.000 OA
ATOM     33  H38 UNL     1       5.851  60.171  12.580  0.00  0.00    +0.000 HD
ENDBRANCH  26  32
ENDBRANCH  22  30
ENDBRANCH   1  22
BRANCH  18  34
ATOM     34  O4  UNL     1       2.462  47.225   9.823  0.00  0.00    +0.000 OA
ATOM     35  H31 UNL     1       2.749  46.822   8.963  0.00  0.00    +0.000 HD
ENDBRANCH  18  34
TORSDOF 4
ENDMDL
MODEL 4
REMARK VINA RESULT:      -8.4      2.556      7.886
REMARK  Name = .\Withaferin A.pdb
REMARK  8 active torsions:
REMARK  status: ('A' for Active; 'I' for Inactive)
REMARK    1  A    between atoms: C1_1  and  C2_2
REMARK    2  A    between atoms: C3_3  and  O6_33
REMARK    3  A    between atoms: C5_7  and  C7_9
REMARK    4  A    between atoms: C7_9  and  C8_10
REMARK    5  A    between atoms: C7_9  and  C9_11
REMARK    6  A    between atoms: C13_15  and  C27_32
REMARK    7  A    between atoms: C21_23  and  C26_30
REMARK    8  A    between atoms: C25_28  and  O4_29
REMARK                            x       y       z     vdW  Elec       q    Type
REMARK                         _______ _______ _______ _____ _____    ______ ____
ROOT
ATOM      1  C9  UNL     1       3.484  56.243   8.045  0.00  0.00    +0.000 C 
ATOM      2  C10 UNL     1       2.729  55.699   6.822  0.00  0.00    +0.000 C 
ATOM      3  C11 UNL     1       1.942  54.480   7.283  0.00  0.00    +0.000 C 
ATOM      4  C12 UNL     1       2.204  54.318   8.788  0.00  0.00    +0.000 C 
ATOM      5  C13 UNL     1       3.550  55.035   9.040  0.00  0.00    +0.000 C 
ATOM      6  C14 UNL     1       4.718  54.075   8.695  0.00  0.00    +0.000 C 
ATOM      7  C15 UNL     1       4.647  52.779   9.491  0.00  0.00    +0.000 C 
ATOM      8  C16 UNL     1       3.373  51.948   9.192  0.00  0.00    +0.000 C 
ATOM      9  C17 UNL     1       2.073  52.820   9.245  0.00  0.00    +0.000 C 
ATOM     10  C18 UNL     1       1.325  52.645  10.582  0.00  0.00    +0.000 C 
ATOM     11  C19 UNL     1       0.879  51.189  10.795  0.00  0.00    +0.000 C 
ATOM     12  C20 UNL     1       1.877  50.137  10.486  0.00  0.00    +0.000 C 
ATOM     13  C21 UNL     1       3.315  50.576  10.037  0.00  0.00    +0.000 C 
ATOM     14  C22 UNL     1       3.904  49.440   9.205  0.00  0.00    +0.000 C 
ATOM     15  O3  UNL     1       4.980  49.586   8.642  0.00  0.00    +0.000 OA
ATOM     16  C23 UNL     1       3.186  48.119   9.081  0.00  0.00    +0.000 C 
ATOM     17  C24 UNL     1       2.644  47.688  10.450  0.00  0.00    +0.000 C 
ATOM     18  C25 UNL     1       1.646  48.712  11.046  0.00  0.00    +0.000 C 
ATOM     19  C26 UNL     1       4.151  50.652  11.346  0.00  0.00    +0.000 C 
ATOM     20  O5  UNL     1       0.845  50.457   9.583  0.00  0.00    +0.000 OA
ATOM     21  C27 UNL     1       3.623  55.521  10.513  0.00  0.00    +0.000 C 
ENDROOT
BRANCH   1  22
ATOM     22  C7  UNL     1       4.829  56.954   7.643  0.00  0.00    +0.000 C 
ATOM     23  C8  UNL     1       4.759  57.592   6.240  0.00  0.00    +0.000 C 
BRANCH  22  30
ATOM     24  C1  UNL     1       8.318  53.751   5.555  0.00  0.00    +0.000 C 
ATOM     25  C2  UNL     1       7.942  54.804   6.561  0.00  0.00    +0.000 C 
ATOM     26  C3  UNL     1       8.785  55.114   7.563  0.00  0.00    +0.000 C 
ATOM     27  C4  UNL     1       8.391  56.143   8.544  0.00  0.00    +0.000 C 
ATOM     28  O1  UNL     1       9.221  56.588   9.380  0.00  0.00    +0.000 OA
ATOM     29  O2  UNL     1       7.086  56.636   8.532  0.00  0.00    +0.000 OA
ATOM     30  C5  UNL     1       6.068  56.009   7.749  0.00  0.00    +0.000 C 
ATOM     31  C6  UNL     1       6.649  55.573   6.383  0.00  0.00    +0.000 C 
BRANCH  26  32
ATOM     32  O6  UNL     1      10.016  54.465   7.676  0.00  0.00    +0.000 OA
ATOM     33  H38 UNL     1      10.345  53.821   6.967  0.00  0.00    +0.000 HD
ENDBRANCH  26  32
ENDBRANCH  22  30
ENDBRANCH   1  22
BRANCH  18  34
ATOM     34  O4  UNL     1       1.756  48.740  12.445  0.00  0.00    +0.000 OA
ATOM     35  H31 UNL     1       2.314  47.961  12.704  0.00  0.00    +0.000 HD
ENDBRANCH  18  34
TORSDOF 4
ENDMDL
MODEL 5
REMARK VINA RESULT:      -8.2      3.110      7.724
REMARK  Name = .\Withaferin A.pdb
REMARK  8 active torsions:
REMARK  status: ('A' for Active; 'I' for Inactive)
REMARK    1  A    between atoms: C1_1  and  C2_2
REMARK    2  A    between atoms: C3_3  and  O6_33
REMARK    3  A    between atoms: C5_7  and  C7_9
REMARK    4  A    between atoms: C7_9  and  C8_10
REMARK    5  A    between atoms: C7_9  and  C9_11
REMARK    6  A    between atoms: C13_15  and  C27_32
REMARK    7  A    between atoms: C21_23  and  C26_30
REMARK    8  A    between atoms: C25_28  and  O4_29
REMARK                            x       y       z     vdW  Elec       q    Type
REMARK                         _______ _______ _______ _____ _____    ______ ____
ROOT
ATOM      1  C9  UNL     1       4.454  54.665   7.775  0.00  0.00    +0.000 C 
ATOM      2  C10 UNL     1       4.005  53.771   6.609  0.00  0.00    +0.000 C 
ATOM      3  C11 UNL     1       2.860  52.906   7.118  0.00  0.00    +0.000 C 
ATOM      4  C12 UNL     1       2.606  53.310   8.578  0.00  0.00    +0.000 C 
ATOM      5  C13 UNL     1       3.937  53.932   9.059  0.00  0.00    +0.000 C 
ATOM      6  C14 UNL     1       4.905  52.803   9.499  0.00  0.00    +0.000 C 
ATOM      7  C15 UNL     1       4.302  51.927  10.589  0.00  0.00    +0.000 C 
ATOM      8  C16 UNL     1       3.025  51.175  10.130  0.00  0.00    +0.000 C 
ATOM      9  C17 UNL     1       2.005  52.124   9.415  0.00  0.00    +0.000 C 
ATOM     10  C18 UNL     1       0.866  52.551  10.362  0.00  0.00    +0.000 C 
ATOM     11  C19 UNL     1       0.058  51.341  10.857  0.00  0.00    +0.000 C 
ATOM     12  C20 UNL     1       0.835  50.158  11.298  0.00  0.00    +0.000 C 
ATOM     13  C21 UNL     1       2.402  50.245  11.291  0.00  0.00    +0.000 C 
ATOM     14  C22 UNL     1       2.942  48.825  11.152  0.00  0.00    +0.000 C 
ATOM     15  O3  UNL     1       4.142  48.636  11.009  0.00  0.00    +0.000 OA
ATOM     16  C23 UNL     1       2.016  47.635  11.210  0.00  0.00    +0.000 C 
ATOM     17  C24 UNL     1       0.999  47.820  12.344  0.00  0.00    +0.000 C 
ATOM     18  C25 UNL     1       0.127  49.087  12.164  0.00  0.00    +0.000 C 
ATOM     19  C26 UNL     1       2.793  50.736  12.714  0.00  0.00    +0.000 C 
ATOM     20  O5  UNL     1       0.230  50.206  10.028  0.00  0.00    +0.000 OA
ATOM     21  C27 UNL     1       3.666  54.937  10.211  0.00  0.00    +0.000 C 
ENDROOT
BRANCH   1  22
ATOM     22  C7  UNL     1       5.982  55.030   7.687  0.00  0.00    +0.000 C 
ATOM     23  C8  UNL     1       6.224  56.376   6.973  0.00  0.00    +0.000 C 
BRANCH  22  30
ATOM     24  C1  UNL     1       9.181  53.289   4.010  0.00  0.00    +0.000 C 
ATOM     25  C2  UNL     1       8.697  53.289   5.434  0.00  0.00    +0.000 C 
ATOM     26  C3  UNL     1       9.138  52.356   6.299  0.00  0.00    +0.000 C 
ATOM     27  C4  UNL     1       8.642  52.369   7.688  0.00  0.00    +0.000 C 
ATOM     28  O1  UNL     1       9.165  51.635   8.566  0.00  0.00    +0.000 OA
ATOM     29  O2  UNL     1       7.590  53.219   8.031  0.00  0.00    +0.000 OA
ATOM     30  C5  UNL     1       6.836  53.902   7.027  0.00  0.00    +0.000 C 
ATOM     31  C6  UNL     1       7.782  54.399   5.908  0.00  0.00    +0.000 C 
BRANCH  26  32
ATOM     32  O6  UNL     1      10.050  51.383   5.883  0.00  0.00    +0.000 OA
ATOM     33  H38 UNL     1      10.505  51.432   4.980  0.00  0.00    +0.000 HD
ENDBRANCH  26  32
ENDBRANCH  22  30
ENDBRANCH   1  22
BRANCH  18  34
ATOM     34  O4  UNL     1      -0.191  49.640  13.415  0.00  0.00    +0.000 OA
ATOM     35  H31 UNL     1      -0.959  50.252  13.270  0.00  0.00    +0.000 HD
ENDBRANCH  18  34
TORSDOF 4
ENDMDL
MODEL 6
REMARK VINA RESULT:      -8.1      1.715      8.534
REMARK  Name = .\Withaferin A.pdb
REMARK  8 active torsions:
REMARK  status: ('A' for Active; 'I' for Inactive)
REMARK    1  A    between atoms: C1_1  and  C2_2
REMARK    2  A    between atoms: C3_3  and  O6_33
REMARK    3  A    between atoms: C5_7  and  C7_9
REMARK    4  A    between atoms: C7_9  and  C8_10
REMARK    5  A    between atoms: C7_9  and  C9_11
REMARK    6  A    between atoms: C13_15  and  C27_32
REMARK    7  A    between atoms: C21_23  and  C26_30
REMARK    8  A    between atoms: C25_28  and  O4_29
REMARK                            x       y       z     vdW  Elec       q    Type
REMARK                         _______ _______ _______ _____ _____    ______ ____
ROOT
ATOM      1  C9  UNL     1       3.863  52.732  10.563  0.00  0.00    +0.000 C 
ATOM      2  C10 UNL     1       3.022  51.794  11.443  0.00  0.00    +0.000 C 
ATOM      3  C11 UNL     1       3.001  50.433  10.760  0.00  0.00    +0.000 C 
ATOM      4  C12 UNL     1       3.858  50.554   9.491  0.00  0.00    +0.000 C 
ATOM      5  C13 UNL     1       3.857  52.062   9.148  0.00  0.00    +0.000 C 
ATOM      6  C14 UNL     1       2.569  52.410   8.358  0.00  0.00    +0.000 C 
ATOM      7  C15 UNL     1       2.432  51.576   7.091  0.00  0.00    +0.000 C 
ATOM      8  C16 UNL     1       2.305  50.056   7.372  0.00  0.00    +0.000 C 
ATOM      9  C17 UNL     1       3.394  49.548   8.376  0.00  0.00    +0.000 C 
ATOM     10  C18 UNL     1       4.562  48.855   7.645  0.00  0.00    +0.000 C 
ATOM     11  C19 UNL     1       4.086  47.621   6.861  0.00  0.00    +0.000 C 
ATOM     12  C20 UNL     1       2.845  47.778   6.064  0.00  0.00    +0.000 C 
ATOM     13  C21 UNL     1       2.154  49.186   6.023  0.00  0.00    +0.000 C 
ATOM     14  C22 UNL     1       0.674  48.964   5.723  0.00  0.00    +0.000 C 
ATOM     15  O3  UNL     1      -0.106  49.906   5.750  0.00  0.00    +0.000 OA
ATOM     16  C23 UNL     1       0.154  47.592   5.369  0.00  0.00    +0.000 C 
ATOM     17  C24 UNL     1       1.111  46.910   4.384  0.00  0.00    +0.000 C 
ATOM     18  C25 UNL     1       2.539  46.737   4.960  0.00  0.00    +0.000 C 
ATOM     19  C26 UNL     1       2.759  49.907   4.785  0.00  0.00    +0.000 C 
ATOM     20  O5  UNL     1       2.835  47.144   7.321  0.00  0.00    +0.000 OA
ATOM     21  C27 UNL     1       5.137  52.423   8.347  0.00  0.00    +0.000 C 
ENDROOT
BRANCH   1  22
ATOM     22  C7  UNL     1       3.398  54.231  10.682  0.00  0.00    +0.000 C 
ATOM     23  C8  UNL     1       1.937  54.429  10.225  0.00  0.00    +0.000 C 
BRANCH  22  30
ATOM     24  C1  UNL     1       4.636  57.117   6.568  0.00  0.00    +0.000 C 
ATOM     25  C2  UNL     1       4.630  56.888   8.054  0.00  0.00    +0.000 C 
ATOM     26  C3  UNL     1       5.354  57.682   8.864  0.00  0.00    +0.000 C 
ATOM     27  C4  UNL     1       5.341  57.432  10.318  0.00  0.00    +0.000 C 
ATOM     28  O1  UNL     1       5.853  58.257  11.119  0.00  0.00    +0.000 OA
ATOM     29  O2  UNL     1       4.740  56.272  10.808  0.00  0.00    +0.000 OA
ATOM     30  C5  UNL     1       4.343  55.219   9.927  0.00  0.00    +0.000 C 
ATOM     31  C6  UNL     1       3.732  55.815   8.637  0.00  0.00    +0.000 C 
BRANCH  26  32
ATOM     32  O6  UNL     1       6.114  58.726   8.334  0.00  0.00    +0.000 OA
ATOM     33  H38 UNL     1       6.648  58.615   7.480  0.00  0.00    +0.000 HD
ENDBRANCH  26  32
ENDBRANCH  22  30
ENDBRANCH   1  22
BRANCH  18  34
ATOM     34  O4  UNL     1       3.493  46.851   3.937  0.00  0.00    +0.000 OA
ATOM     35  H31 UNL     1       3.445  47.785   3.604  0.00  0.00    +0.000 HD
ENDBRANCH  18  34
TORSDOF 4
ENDMDL
MODEL 7
REMARK VINA RESULT:      -8.1      2.752      8.730
REMARK  Name = .\Withaferin A.pdb
REMARK  8 active torsions:
REMARK  status: ('A' for Active; 'I' for Inactive)
REMARK    1  A    between atoms: C1_1  and  C2_2
REMARK    2  A    between atoms: C3_3  and  O6_33
REMARK    3  A    between atoms: C5_7  and  C7_9
REMARK    4  A    between atoms: C7_9  and  C8_10
REMARK    5  A    between atoms: C7_9  and  C9_11
REMARK    6  A    between atoms: C13_15  and  C27_32
REMARK    7  A    between atoms: C21_23  and  C26_30
REMARK    8  A    between atoms: C25_28  and  O4_29
REMARK                            x       y       z     vdW  Elec       q    Type
REMARK                         _______ _______ _______ _____ _____    ______ ____
ROOT
ATOM      1  C9  UNL     1       3.475  56.138   8.211  0.00  0.00    +0.000 C 
ATOM      2  C10 UNL     1       2.747  55.607   6.967  0.00  0.00    +0.000 C 
ATOM      3  C11 UNL     1       1.955  54.380   7.397  0.00  0.00    +0.000 C 
ATOM      4  C12 UNL     1       2.186  54.200   8.904  0.00  0.00    +0.000 C 
ATOM      5  C13 UNL     1       3.525  54.918   9.193  0.00  0.00    +0.000 C 
ATOM      6  C14 UNL     1       4.703  53.966   8.859  0.00  0.00    +0.000 C 
ATOM      7  C15 UNL     1       4.620  52.660   9.639  0.00  0.00    +0.000 C 
ATOM      8  C16 UNL     1       3.354  51.829   9.304  0.00  0.00    +0.000 C 
ATOM      9  C17 UNL     1       2.051  52.696   9.340  0.00  0.00    +0.000 C 
ATOM     10  C18 UNL     1       1.276  52.503  10.659  0.00  0.00    +0.000 C 
ATOM     11  C19 UNL     1       0.830  51.043  10.845  0.00  0.00    +0.000 C 
ATOM     12  C20 UNL     1       1.838  49.998  10.545  0.00  0.00    +0.000 C 
ATOM     13  C21 UNL     1       3.283  50.446  10.130  0.00  0.00    +0.000 C 
ATOM     14  C22 UNL     1       3.893  49.323   9.296  0.00  0.00    +0.000 C 
ATOM     15  O3  UNL     1       4.980  49.479   8.758  0.00  0.00    +0.000 OA
ATOM     16  C23 UNL     1       3.181  48.001   9.142  0.00  0.00    +0.000 C 
ATOM     17  C24 UNL     1       2.613  47.552  10.494  0.00  0.00    +0.000 C 
ATOM     18  C25 UNL     1       1.600  48.565  11.082  0.00  0.00    +0.000 C 
ATOM     19  C26 UNL     1       4.092  50.509  11.457  0.00  0.00    +0.000 C 
ATOM     20  O5  UNL     1       0.824  50.326   9.625  0.00  0.00    +0.000 OA
ATOM     21  C27 UNL     1       3.566  55.386  10.672  0.00  0.00    +0.000 C 
ENDROOT
BRANCH   1  22
ATOM     22  C7  UNL     1       4.826  56.857   7.846  0.00  0.00    +0.000 C 
ATOM     23  C8  UNL     1       5.846  55.897   7.198  0.00  0.00    +0.000 C 
BRANCH  22  30
ATOM     24  C1  UNL     1       8.357  60.020   9.922  0.00  0.00    +0.000 C 
ATOM     25  C2  UNL     1       6.966  59.452   9.888  0.00  0.00    +0.000 C 
ATOM     26  C3  UNL     1       6.105  59.708  10.891  0.00  0.00    +0.000 C 
ATOM     27  C4  UNL     1       4.748  59.131  10.842  0.00  0.00    +0.000 C 
ATOM     28  O1  UNL     1       3.863  59.494  11.660  0.00  0.00    +0.000 OA
ATOM     29  O2  UNL     1       4.442  58.182   9.865  0.00  0.00    +0.000 OA
ATOM     30  C5  UNL     1       5.469  57.592   9.064  0.00  0.00    +0.000 C 
ATOM     31  C6  UNL     1       6.513  58.665   8.674  0.00  0.00    +0.000 C 
BRANCH  26  32
ATOM     32  O6  UNL     1       6.495  60.505  11.969  0.00  0.00    +0.000 OA
ATOM     33  H38 UNL     1       5.855  60.734  12.720  0.00  0.00    +0.000 HD
ENDBRANCH  26  32
ENDBRANCH  22  30
ENDBRANCH   1  22
BRANCH  18  34
ATOM     34  O4  UNL     1       1.682  48.577  12.484  0.00  0.00    +0.000 OA
ATOM     35  H31 UNL     1       2.366  47.903  12.736  0.00  0.00    +0.000 HD
ENDBRANCH  18  34
TORSDOF 4
ENDMDL
MODEL 8
REMARK VINA RESULT:      -7.9      1.994      2.568
REMARK  Name = .\Withaferin A.pdb
REMARK  8 active torsions:
REMARK  status: ('A' for Active; 'I' for Inactive)
REMARK    1  A    between atoms: C1_1  and  C2_2
REMARK    2  A    between atoms: C3_3  and  O6_33
REMARK    3  A    between atoms: C5_7  and  C7_9
REMARK    4  A    between atoms: C7_9  and  C8_10
REMARK    5  A    between atoms: C7_9  and  C9_11
REMARK    6  A    between atoms: C13_15  and  C27_32
REMARK    7  A    between atoms: C21_23  and  C26_30
REMARK    8  A    between atoms: C25_28  and  O4_29
REMARK                            x       y       z     vdW  Elec       q    Type
REMARK                         _______ _______ _______ _____ _____    ______ ____
ROOT
ATOM      1  C9  UNL     1       2.112  51.641   9.291  0.00  0.00    +0.000 C 
ATOM      2  C10 UNL     1       3.084  51.162  10.380  0.00  0.00    +0.000 C 
ATOM      3  C11 UNL     1       3.719  52.401  10.996  0.00  0.00    +0.000 C 
ATOM      4  C12 UNL     1       3.099  53.619  10.295  0.00  0.00    +0.000 C 
ATOM      5  C13 UNL     1       2.598  53.086   8.932  0.00  0.00    +0.000 C 
ATOM      6  C14 UNL     1       3.777  53.058   7.925  0.00  0.00    +0.000 C 
ATOM      7  C15 UNL     1       4.418  54.429   7.758  0.00  0.00    +0.000 C 
ATOM      8  C16 UNL     1       5.051  54.971   9.066  0.00  0.00    +0.000 C 
ATOM      9  C17 UNL     1       4.078  54.848  10.287  0.00  0.00    +0.000 C 
ATOM     10  C18 UNL     1       3.386  56.190  10.600  0.00  0.00    +0.000 C 
ATOM     11  C19 UNL     1       4.406  57.281  10.966  0.00  0.00    +0.000 C 
ATOM     12  C20 UNL     1       5.613  57.376  10.110  0.00  0.00    +0.000 C 
ATOM     13  C21 UNL     1       5.732  56.419   8.872  0.00  0.00    +0.000 C 
ATOM     14  C22 UNL     1       7.217  56.247   8.564  0.00  0.00    +0.000 C 
ATOM     15  O3  UNL     1       7.577  55.453   7.706  0.00  0.00    +0.000 OA
ATOM     16  C23 UNL     1       8.258  57.063   9.290  0.00  0.00    +0.000 C 
ATOM     17  C24 UNL     1       7.797  58.522   9.397  0.00  0.00    +0.000 C 
ATOM     18  C25 UNL     1       6.460  58.671  10.167  0.00  0.00    +0.000 C 
ATOM     19  C26 UNL     1       5.116  57.207   7.681  0.00  0.00    +0.000 C 
ATOM     20  O5  UNL     1       5.652  56.737  11.364  0.00  0.00    +0.000 OA
ATOM     21  C27 UNL     1       1.426  53.964   8.419  0.00  0.00    +0.000 C 
ENDROOT
BRANCH   1  22
ATOM     22  C7  UNL     1       1.964  50.593   8.126  0.00  0.00    +0.000 C 
ATOM     23  C8  UNL     1       1.184  49.335   8.564  0.00  0.00    +0.000 C 
BRANCH  22  30
ATOM     24  C1  UNL     1       6.036  47.428   7.699  0.00  0.00    +0.000 C 
ATOM     25  C2  UNL     1       5.047  48.381   7.086  0.00  0.00    +0.000 C 
ATOM     26  C3  UNL     1       5.225  48.825   5.828  0.00  0.00    +0.000 C 
ATOM     27  C4  UNL     1       4.247  49.768   5.252  0.00  0.00    +0.000 C 
ATOM     28  O1  UNL     1       4.277  50.060   4.028  0.00  0.00    +0.000 OA
ATOM     29  O2  UNL     1       3.270  50.329   6.075  0.00  0.00    +0.000 OA
ATOM     30  C5  UNL     1       3.335  50.191   7.496  0.00  0.00    +0.000 C 
ATOM     31  C6  UNL     1       3.805  48.764   7.865  0.00  0.00    +0.000 C 
BRANCH  26  32
ATOM     32  O6  UNL     1       6.326  48.404   5.080  0.00  0.00    +0.000 OA
ATOM     33  H38 UNL     1       6.971  47.706   5.429  0.00  0.00    +0.000 HD
ENDBRANCH  26  32
ENDBRANCH  22  30
ENDBRANCH   1  22
BRANCH  18  34
ATOM     34  O4  UNL     1       5.713  59.737   9.641  0.00  0.00    +0.000 OA
ATOM     35  H31 UNL     1       5.848  60.509  10.250  0.00  0.00    +0.000 HD
ENDBRANCH  18  34
TORSDOF 4
ENDMDL
MODEL 9
REMARK VINA RESULT:      -7.5      2.482      3.981
REMARK  Name = .\Withaferin A.pdb
REMARK  8 active torsions:
REMARK  status: ('A' for Active; 'I' for Inactive)
REMARK    1  A    between atoms: C1_1  and  C2_2
REMARK    2  A    between atoms: C3_3  and  O6_33
REMARK    3  A    between atoms: C5_7  and  C7_9
REMARK    4  A    between atoms: C7_9  and  C8_10
REMARK    5  A    between atoms: C7_9  and  C9_11
REMARK    6  A    between atoms: C13_15  and  C27_32
REMARK    7  A    between atoms: C21_23  and  C26_30
REMARK    8  A    between atoms: C25_28  and  O4_29
REMARK                            x       y       z     vdW  Elec       q    Type
REMARK                         _______ _______ _______ _____ _____    ______ ____
ROOT
ATOM      1  C9  UNL     1       2.565  50.555   9.459  0.00  0.00    +0.000 C 
ATOM      2  C10 UNL     1       2.912  50.820  10.932  0.00  0.00    +0.000 C 
ATOM      3  C11 UNL     1       3.209  52.307  11.066  0.00  0.00    +0.000 C 
ATOM      4  C12 UNL     1       3.008  52.933   9.679  0.00  0.00    +0.000 C 
ATOM      5  C13 UNL     1       3.188  51.764   8.682  0.00  0.00    +0.000 C 
ATOM      6  C14 UNL     1       4.699  51.548   8.408  0.00  0.00    +0.000 C 
ATOM      7  C15 UNL     1       5.369  52.809   7.877  0.00  0.00    +0.000 C 
ATOM      8  C16 UNL     1       5.331  53.989   8.883  0.00  0.00    +0.000 C 
ATOM      9  C17 UNL     1       3.900  54.211   9.480  0.00  0.00    +0.000 C 
ATOM     10  C18 UNL     1       3.167  55.374   8.782  0.00  0.00    +0.000 C 
ATOM     11  C19 UNL     1       3.920  56.703   8.956  0.00  0.00    +0.000 C 
ATOM     12  C20 UNL     1       5.388  56.667   8.750  0.00  0.00    +0.000 C 
ATOM     13  C21 UNL     1       6.050  55.314   8.311  0.00  0.00    +0.000 C 
ATOM     14  C22 UNL     1       7.505  55.343   8.772  0.00  0.00    +0.000 C 
ATOM     15  O3  UNL     1       8.208  54.350   8.646  0.00  0.00    +0.000 OA
ATOM     16  C23 UNL     1       8.104  56.595   9.365  0.00  0.00    +0.000 C 
ATOM     17  C24 UNL     1       7.672  57.819   8.547  0.00  0.00    +0.000 C 
ATOM     18  C25 UNL     1       6.134  58.003   8.515  0.00  0.00    +0.000 C 
ATOM     19  C26 UNL     1       6.071  55.351   6.757  0.00  0.00    +0.000 C 
ATOM     20  O5  UNL     1       4.828  56.666  10.042  0.00  0.00    +0.000 OA
ATOM     21  C27 UNL     1       2.404  52.058   7.375  0.00  0.00    +0.000 C 
ENDROOT
BRANCH   1  22
ATOM     22  C7  UNL     1       2.956  49.098   9.010  0.00  0.00    +0.000 C 
ATOM     23  C8  UNL     1       1.820  48.398   8.235  0.00  0.00    +0.000 C 
BRANCH  22  30
ATOM     24  C1  UNL     1       6.437  47.753  12.596  0.00  0.00    +0.000 C 
ATOM     25  C2  UNL     1       5.010  47.913  12.150  0.00  0.00    +0.000 C 
ATOM     26  C3  UNL     1       4.008  47.407  12.892  0.00  0.00    +0.000 C 
ATOM     27  C4  UNL     1       2.616  47.567  12.430  0.00  0.00    +0.000 C 
ATOM     28  O1  UNL     1       1.650  47.273  13.180  0.00  0.00    +0.000 OA
ATOM     29  O2  UNL     1       2.373  48.066  11.149  0.00  0.00    +0.000 OA
ATOM     30  C5  UNL     1       3.433  48.207  10.200  0.00  0.00    +0.000 C 
ATOM     31  C6  UNL     1       4.707  48.726  10.907  0.00  0.00    +0.000 C 
BRANCH  26  32
ATOM     32  O6  UNL     1       4.283  46.732  14.083  0.00  0.00    +0.000 OA
ATOM     33  H38 UNL     1       5.048  46.073  14.156  0.00  0.00    +0.000 HD
ENDBRANCH  26  32
ENDBRANCH  22  30
ENDBRANCH   1  22
BRANCH  18  34
ATOM     34  O4  UNL     1       5.736  58.546   7.283  0.00  0.00    +0.000 OA
ATOM     35  H31 UNL     1       4.951  58.019   6.979  0.00  0.00    +0.000 HD
ENDBRANCH  18  34
TORSDOF 4
ENDMDL
