MODEL 1
REMARK VINA RESULT:      -2.2      0.000      0.000
REMARK  Name = .\Withaferin A.pdb
REMARK  8 active torsions:
REMARK  status: ('A' for Active; 'I' for Inactive)
REMARK    1  A    between atoms: C1_1  and  C2_2
REMARK    2  A    between atoms: C3_3  and  O6_33
REMARK    3  A    between atoms: C5_7  and  C7_9
REMARK    4  A    between atoms: C7_9  and  C8_10
REMARK    5  A    between atoms: C7_9  and  C9_11
REMARK    6  A    between atoms: C13_15  and  C27_32
REMARK    7  A    between atoms: C21_23  and  C26_30
REMARK    8  A    between atoms: C25_28  and  O4_29
REMARK                            x       y       z     vdW  Elec       q    Type
REMARK                         _______ _______ _______ _____ _____    ______ ____
ROOT
ATOM      1  C9  UNL     1      10.550  72.086  59.321  0.00  0.00    +0.000 C 
ATOM      2  C10 UNL     1      11.396  72.325  58.061  0.00  0.00    +0.000 C 
ATOM      3  C11 UNL     1      12.125  73.648  58.250  0.00  0.00    +0.000 C 
ATOM      4  C12 UNL     1      11.737  74.180  59.638  0.00  0.00    +0.000 C 
ATOM      5  C13 UNL     1      10.384  73.505  59.962  0.00  0.00    +0.000 C 
ATOM      6  C14 UNL     1       9.235  74.303  59.293  0.00  0.00    +0.000 C 
ATOM      7  C15 UNL     1       9.222  75.761  59.731  0.00  0.00    +0.000 C 
ATOM      8  C16 UNL     1      10.505  76.532  59.327  0.00  0.00    +0.000 C 
ATOM      9  C17 UNL     1      11.808  75.749  59.702  0.00  0.00    +0.000 C 
ATOM     10  C18 UNL     1      12.440  76.285  61.002  0.00  0.00    +0.000 C 
ATOM     11  C19 UNL     1      12.846  77.762  60.866  0.00  0.00    +0.000 C 
ATOM     12  C20 UNL     1      11.862  78.665  60.222  0.00  0.00    +0.000 C 
ATOM     13  C21 UNL     1      10.473  78.076  59.791  0.00  0.00    +0.000 C 
ATOM     14  C22 UNL     1       9.940  78.940  58.652  0.00  0.00    +0.000 C 
ATOM     15  O3  UNL     1       8.916  78.617  58.065  0.00  0.00    +0.000 OA
ATOM     16  C23 UNL     1      10.647  80.210  58.247  0.00  0.00    +0.000 C 
ATOM     17  C24 UNL     1      11.067  80.995  59.496  0.00  0.00    +0.000 C 
ATOM     18  C25 UNL     1      12.026  80.193  60.411  0.00  0.00    +0.000 C 
ATOM     19  C26 UNL     1       9.533  78.308  61.008  0.00  0.00    +0.000 C 
ATOM     20  O5  UNL     1      12.970  78.161  59.513  0.00  0.00    +0.000 OA
ATOM     21  C27 UNL     1      10.195  73.409  61.500  0.00  0.00    +0.000 C 
ENDROOT
BRANCH   1  22
ATOM     22  C7  UNL     1       9.252  71.249  59.013  0.00  0.00    +0.000 C 
ATOM     23  C8  UNL     1       8.319  71.142  60.238  0.00  0.00    +0.000 C 
BRANCH  22  30
ATOM     24  C1  UNL     1      12.492  67.318  58.099  0.00  0.00    +0.000 C 
ATOM     25  C2  UNL     1      11.117  67.836  58.423  0.00  0.00    +0.000 C 
ATOM     26  C3  UNL     1      10.058  67.006  58.397  0.00  0.00    +0.000 C 
ATOM     27  C4  UNL     1       8.717  67.538  58.707  0.00  0.00    +0.000 C 
ATOM     28  O1  UNL     1       7.739  66.764  58.873  0.00  0.00    +0.000 OA
ATOM     29  O2  UNL     1       8.540  68.917  58.833  0.00  0.00    +0.000 OA
ATOM     30  C5  UNL     1       9.569  69.830  58.445  0.00  0.00    +0.000 C 
ATOM     31  C6  UNL     1      10.951  69.275  58.864  0.00  0.00    +0.000 C 
BRANCH  26  32
ATOM     32  O6  UNL     1      10.225  65.657  58.073  0.00  0.00    +0.000 OA
ATOM     33  H38 UNL     1      11.041  65.328  57.572  0.00  0.00    +0.000 HD
ENDBRANCH  26  32
ENDBRANCH  22  30
ENDBRANCH   1  22
BRANCH  18  34
ATOM     34  O4  UNL     1      11.800  80.520  61.758  0.00  0.00    +0.000 OA
ATOM     35  H31 UNL     1      11.372  81.415  61.766  0.00  0.00    +0.000 HD
ENDBRANCH  18  34
TORSDOF 4
ENDMDL
MODEL 2
REMARK VINA RESULT:      -1.5      9.416     11.964
REMARK  Name = .\Withaferin A.pdb
REMARK  8 active torsions:
REMARK  status: ('A' for Active; 'I' for Inactive)
REMARK    1  A    between atoms: C1_1  and  C2_2
REMARK    2  A    between atoms: C3_3  and  O6_33
REMARK    3  A    between atoms: C5_7  and  C7_9
REMARK    4  A    between atoms: C7_9  and  C8_10
REMARK    5  A    between atoms: C7_9  and  C9_11
REMARK    6  A    between atoms: C13_15  and  C27_32
REMARK    7  A    between atoms: C21_23  and  C26_30
REMARK    8  A    between atoms: C25_28  and  O4_29
REMARK                            x       y       z     vdW  Elec       q    Type
REMARK                         _______ _______ _______ _____ _____    ______ ____
ROOT
ATOM      1  C9  UNL     1       6.740  78.590  66.735  0.00  0.00    +0.000 C 
ATOM      2  C10 UNL     1       5.371  78.873  66.095  0.00  0.00    +0.000 C 
ATOM      3  C11 UNL     1       4.941  80.262  66.545  0.00  0.00    +0.000 C 
ATOM      4  C12 UNL     1       6.069  80.819  67.427  0.00  0.00    +0.000 C 
ATOM      5  C13 UNL     1       6.820  79.573  67.952  0.00  0.00    +0.000 C 
ATOM      6  C14 UNL     1       6.078  79.009  69.191  0.00  0.00    +0.000 C 
ATOM      7  C15 UNL     1       5.935  80.049  70.294  0.00  0.00    +0.000 C 
ATOM      8  C16 UNL     1       5.086  81.276  69.870  0.00  0.00    +0.000 C 
ATOM      9  C17 UNL     1       5.530  81.850  68.483  0.00  0.00    +0.000 C 
ATOM     10  C18 UNL     1       6.425  83.095  68.643  0.00  0.00    +0.000 C 
ATOM     11  C19 UNL     1       5.687  84.233  69.367  0.00  0.00    +0.000 C 
ATOM     12  C20 UNL     1       4.905  83.858  70.569  0.00  0.00    +0.000 C 
ATOM     13  C21 UNL     1       4.937  82.364  71.050  0.00  0.00    +0.000 C 
ATOM     14  C22 UNL     1       3.650  82.102  71.826  0.00  0.00    +0.000 C 
ATOM     15  O3  UNL     1       3.385  80.972  72.211  0.00  0.00    +0.000 OA
ATOM     16  C23 UNL     1       2.699  83.228  72.150  0.00  0.00    +0.000 C 
ATOM     17  C24 UNL     1       3.486  84.457  72.622  0.00  0.00    +0.000 C 
ATOM     18  C25 UNL     1       4.482  84.975  71.554  0.00  0.00    +0.000 C 
ATOM     19  C26 UNL     1       6.103  82.287  72.075  0.00  0.00    +0.000 C 
ATOM     20  O5  UNL     1       4.281  84.072  69.325  0.00  0.00    +0.000 OA
ATOM     21  C27 UNL     1       8.291  79.941  68.282  0.00  0.00    +0.000 C 
ENDROOT
BRANCH   1  22
ATOM     22  C7  UNL     1       6.964  77.055  67.000  0.00  0.00    +0.000 C 
ATOM     23  C8  UNL     1       8.033  76.796  68.082  0.00  0.00    +0.000 C 
BRANCH  22  30
ATOM     24  C1  UNL     1      10.018  76.009  62.955  0.00  0.00    +0.000 C 
ATOM     25  C2  UNL     1       9.051  75.563  64.017  0.00  0.00    +0.000 C 
ATOM     26  C3  UNL     1       8.532  74.322  63.982  0.00  0.00    +0.000 C 
ATOM     27  C4  UNL     1       7.577  73.910  65.028  0.00  0.00    +0.000 C 
ATOM     28  O1  UNL     1       7.215  72.709  65.134  0.00  0.00    +0.000 OA
ATOM     29  O2  UNL     1       7.084  74.864  65.919  0.00  0.00    +0.000 OA
ATOM     30  C5  UNL     1       7.302  76.260  65.700  0.00  0.00    +0.000 C 
ATOM     31  C6  UNL     1       8.738  76.491  65.174  0.00  0.00    +0.000 C 
BRANCH  26  32
ATOM     32  O6  UNL     1       8.888  73.437  62.962  0.00  0.00    +0.000 OA
ATOM     33  H38 UNL     1       8.591  73.581  62.005  0.00  0.00    +0.000 HD
ENDBRANCH  26  32
ENDBRANCH  22  30
ENDBRANCH   1  22
BRANCH  18  34
ATOM     34  O4  UNL     1       5.625  85.505  72.173  0.00  0.00    +0.000 OA
ATOM     35  H31 UNL     1       5.543  85.309  73.142  0.00  0.00    +0.000 HD
ENDBRANCH  18  34
TORSDOF 4
ENDMDL
MODEL 3
REMARK VINA RESULT:      -0.2      4.144      5.259
REMARK  Name = .\Withaferin A.pdb
REMARK  8 active torsions:
REMARK  status: ('A' for Active; 'I' for Inactive)
REMARK    1  A    between atoms: C1_1  and  C2_2
REMARK    2  A    between atoms: C3_3  and  O6_33
REMARK    3  A    between atoms: C5_7  and  C7_9
REMARK    4  A    between atoms: C7_9  and  C8_10
REMARK    5  A    between atoms: C7_9  and  C9_11
REMARK    6  A    between atoms: C13_15  and  C27_32
REMARK    7  A    between atoms: C21_23  and  C26_30
REMARK    8  A    between atoms: C25_28  and  O4_29
REMARK                            x       y       z     vdW  Elec       q    Type
REMARK                         _______ _______ _______ _____ _____    ______ ____
ROOT
ATOM      1  C9  UNL     1       9.350  74.527  63.240  0.00  0.00    +0.000 C 
ATOM      2  C10 UNL     1       8.825  74.032  61.883  0.00  0.00    +0.000 C 
ATOM      3  C11 UNL     1       9.671  74.693  60.803  0.00  0.00    +0.000 C 
ATOM      4  C12 UNL     1      10.721  75.556  61.519  0.00  0.00    +0.000 C 
ATOM      5  C13 UNL     1      10.113  75.854  62.910  0.00  0.00    +0.000 C 
ATOM      6  C14 UNL     1       9.142  77.058  62.800  0.00  0.00    +0.000 C 
ATOM      7  C15 UNL     1       9.829  78.297  62.242  0.00  0.00    +0.000 C 
ATOM      8  C16 UNL     1      10.357  78.103  60.796  0.00  0.00    +0.000 C 
ATOM      9  C17 UNL     1      11.172  76.776  60.638  0.00  0.00    +0.000 C 
ATOM     10  C18 UNL     1      12.692  77.034  60.674  0.00  0.00    +0.000 C 
ATOM     11  C19 UNL     1      13.136  77.956  59.526  0.00  0.00    +0.000 C 
ATOM     12  C20 UNL     1      12.297  79.151  59.271  0.00  0.00    +0.000 C 
ATOM     13  C21 UNL     1      11.074  79.425  60.215  0.00  0.00    +0.000 C 
ATOM     14  C22 UNL     1      10.061  80.251  59.429  0.00  0.00    +0.000 C 
ATOM     15  O3  UNL     1       8.966  80.501  59.912  0.00  0.00    +0.000 OA
ATOM     16  C23 UNL     1      10.398  80.791  58.061  0.00  0.00    +0.000 C 
ATOM     17  C24 UNL     1      11.821  81.364  58.061  0.00  0.00    +0.000 C 
ATOM     18  C25 UNL     1      12.891  80.304  58.425  0.00  0.00    +0.000 C 
ATOM     19  C26 UNL     1      11.623  80.343  61.344  0.00  0.00    +0.000 C 
ATOM     20  O5  UNL     1      12.190  77.995  58.474  0.00  0.00    +0.000 OA
ATOM     21  C27 UNL     1      11.247  76.122  63.936  0.00  0.00    +0.000 C 
ENDROOT
BRANCH   1  22
ATOM     22  C7  UNL     1       8.220  74.568  64.334  0.00  0.00    +0.000 C 
ATOM     23  C8  UNL     1       8.641  75.369  65.583  0.00  0.00    +0.000 C 
BRANCH  22  30
ATOM     24  C1  UNL     1       8.315  69.409  63.931  0.00  0.00    +0.000 C 
ATOM     25  C2  UNL     1       8.145  70.657  64.753  0.00  0.00    +0.000 C 
ATOM     26  C3  UNL     1       7.685  70.578  66.015  0.00  0.00    +0.000 C 
ATOM     27  C4  UNL     1       7.516  71.816  66.800  0.00  0.00    +0.000 C 
ATOM     28  O1  UNL     1       7.266  71.769  68.033  0.00  0.00    +0.000 OA
ATOM     29  O2  UNL     1       7.651  73.052  66.166  0.00  0.00    +0.000 OA
ATOM     30  C5  UNL     1       7.721  73.146  64.742  0.00  0.00    +0.000 C 
ATOM     31  C6  UNL     1       8.582  71.990  64.180  0.00  0.00    +0.000 C 
BRANCH  26  32
ATOM     32  O6  UNL     1       7.363  69.338  66.573  0.00  0.00    +0.000 OA
ATOM     33  H38 UNL     1       7.650  68.470  66.139  0.00  0.00    +0.000 HD
ENDBRANCH  26  32
ENDBRANCH  22  30
ENDBRANCH   1  22
BRANCH  18  34
ATOM     34  O4  UNL     1      13.946  80.902  59.133  0.00  0.00    +0.000 OA
ATOM     35  H31 UNL     1      14.443  80.168  59.579  0.00  0.00    +0.000 HD
ENDBRANCH  18  34
TORSDOF 4
ENDMDL
MODEL 4
REMARK VINA RESULT:       0.5      7.589      9.662
REMARK  Name = .\Withaferin A.pdb
REMARK  8 active torsions:
REMARK  status: ('A' for Active; 'I' for Inactive)
REMARK    1  A    between atoms: C1_1  and  C2_2
REMARK    2  A    between atoms: C3_3  and  O6_33
REMARK    3  A    between atoms: C5_7  and  C7_9
REMARK    4  A    between atoms: C7_9  and  C8_10
REMARK    5  A    between atoms: C7_9  and  C9_11
REMARK    6  A    between atoms: C13_15  and  C27_32
REMARK    7  A    between atoms: C21_23  and  C26_30
REMARK    8  A    between atoms: C25_28  and  O4_29
REMARK                            x       y       z     vdW  Elec       q    Type
REMARK                         _______ _______ _______ _____ _____    ______ ____
ROOT
ATOM      1  C9  UNL     1       8.076  76.775  66.351  0.00  0.00    +0.000 C 
ATOM      2  C10 UNL     1       8.464  77.643  65.143  0.00  0.00    +0.000 C 
ATOM      3  C11 UNL     1       8.694  79.056  65.659  0.00  0.00    +0.000 C 
ATOM      4  C12 UNL     1       8.475  79.022  67.179  0.00  0.00    +0.000 C 
ATOM      5  C13 UNL     1       7.568  77.794  67.426  0.00  0.00    +0.000 C 
ATOM      6  C14 UNL     1       6.088  78.190  67.182  0.00  0.00    +0.000 C 
ATOM      7  C15 UNL     1       5.657  79.356  68.061  0.00  0.00    +0.000 C 
ATOM      8  C16 UNL     1       6.449  80.659  67.778  0.00  0.00    +0.000 C 
ATOM      9  C17 UNL     1       7.994  80.413  67.731  0.00  0.00    +0.000 C 
ATOM     10  C18 UNL     1       8.676  80.822  69.051  0.00  0.00    +0.000 C 
ATOM     11  C19 UNL     1       8.485  82.319  69.347  0.00  0.00    +0.000 C 
ATOM     12  C20 UNL     1       7.122  82.868  69.141  0.00  0.00    +0.000 C 
ATOM     13  C21 UNL     1       5.976  81.887  68.710  0.00  0.00    +0.000 C 
ATOM     14  C22 UNL     1       4.920  82.708  67.975  0.00  0.00    +0.000 C 
ATOM     15  O3  UNL     1       3.973  82.150  67.438  0.00  0.00    +0.000 OA
ATOM     16  C23 UNL     1       5.013  84.213  67.916  0.00  0.00    +0.000 C 
ATOM     17  C24 UNL     1       5.402  84.766  69.293  0.00  0.00    +0.000 C 
ATOM     18  C25 UNL     1       6.769  84.230  69.787  0.00  0.00    +0.000 C 
ATOM     19  C26 UNL     1       5.325  81.405  70.037  0.00  0.00    +0.000 C 
ATOM     20  O5  UNL     1       8.140  83.054  68.186  0.00  0.00    +0.000 OA
ATOM     21  C27 UNL     1       7.789  77.254  68.864  0.00  0.00    +0.000 C 
ENDROOT
BRANCH   1  22
ATOM     22  C7  UNL     1       7.129  75.584  65.945  0.00  0.00    +0.000 C 
ATOM     23  C8  UNL     1       6.315  75.048  67.142  0.00  0.00    +0.000 C 
BRANCH  22  30
ATOM     24  C1  UNL     1       7.695  70.591  64.708  0.00  0.00    +0.000 C 
ATOM     25  C2  UNL     1       7.836  72.049  64.369  0.00  0.00    +0.000 C 
ATOM     26  C3  UNL     1       8.530  72.427  63.279  0.00  0.00    +0.000 C 
ATOM     27  C4  UNL     1       8.664  73.864  62.972  0.00  0.00    +0.000 C 
ATOM     28  O1  UNL     1       9.143  74.246  61.873  0.00  0.00    +0.000 OA
ATOM     29  O2  UNL     1       8.238  74.807  63.909  0.00  0.00    +0.000 OA
ATOM     30  C5  UNL     1       7.892  74.419  65.241  0.00  0.00    +0.000 C 
ATOM     31  C6  UNL     1       7.115  73.081  65.213  0.00  0.00    +0.000 C 
BRANCH  26  32
ATOM     32  O6  UNL     1       9.122  71.470  62.453  0.00  0.00    +0.000 OA
ATOM     33  H38 UNL     1      10.034  71.617  62.038  0.00  0.00    +0.000 HD
ENDBRANCH  26  32
ENDBRANCH  22  30
ENDBRANCH   1  22
BRANCH  18  34
ATOM     34  O4  UNL     1       6.760  84.092  71.184  0.00  0.00    +0.000 OA
ATOM     35  H31 UNL     1       6.640  85.002  71.561  0.00  0.00    +0.000 HD
ENDBRANCH  18  34
TORSDOF 4
ENDMDL
