MODEL 1
REMARK VINA RESULT:     127.4      0.000      0.000
REMARK  Name = .\Withaferin A.pdb
REMARK  8 active torsions:
REMARK  status: ('A' for Active; 'I' for Inactive)
REMARK    1  A    between atoms: C1_1  and  C2_2
REMARK    2  A    between atoms: C3_3  and  O6_33
REMARK    3  A    between atoms: C5_7  and  C7_9
REMARK    4  A    between atoms: C7_9  and  C8_10
REMARK    5  A    between atoms: C7_9  and  C9_11
REMARK    6  A    between atoms: C13_15  and  C27_32
REMARK    7  A    between atoms: C21_23  and  C26_30
REMARK    8  A    between atoms: C25_28  and  O4_29
REMARK                            x       y       z     vdW  Elec       q    Type
REMARK                         _______ _______ _______ _____ _____    ______ ____
ROOT
ATOM      1  C9  UNL     1       1.362  34.692  27.753  0.00  0.00    +0.000 C 
ATOM      2  C10 UNL     1       1.610  35.958  28.587  0.00  0.00    +0.000 C 
ATOM      3  C11 UNL     1       1.183  35.649  30.015  0.00  0.00    +0.000 C 
ATOM      4  C12 UNL     1       0.710  34.188  30.037  0.00  0.00    +0.000 C 
ATOM      5  C13 UNL     1       0.310  33.874  28.576  0.00  0.00    +0.000 C 
ATOM      6  C14 UNL     1      -1.134  34.378  28.318  0.00  0.00    +0.000 C 
ATOM      7  C15 UNL     1      -2.135  33.764  29.288  0.00  0.00    +0.000 C 
ATOM      8  C16 UNL     1      -1.861  34.142  30.767  0.00  0.00    +0.000 C 
ATOM      9  C17 UNL     1      -0.360  33.937  31.161  0.00  0.00    +0.000 C 
ATOM     10  C18 UNL     1      -0.148  32.619  31.931  0.00  0.00    +0.000 C 
ATOM     11  C19 UNL     1      -0.948  32.596  33.244  0.00  0.00    +0.000 C 
ATOM     12  C20 UNL     1      -2.351  33.071  33.176  0.00  0.00    +0.000 C 
ATOM     13  C21 UNL     1      -2.933  33.493  31.781  0.00  0.00    +0.000 C 
ATOM     14  C22 UNL     1      -4.062  34.487  32.035  0.00  0.00    +0.000 C 
ATOM     15  O3  UNL     1      -4.605  35.052  31.095  0.00  0.00    +0.000 OA
ATOM     16  C23 UNL     1      -4.541  34.773  33.437  0.00  0.00    +0.000 C 
ATOM     17  C24 UNL     1      -4.660  33.463  34.226  0.00  0.00    +0.000 C 
ATOM     18  C25 UNL     1      -3.312  32.707  34.334  0.00  0.00    +0.000 C 
ATOM     19  C26 UNL     1      -3.589  32.207  31.203  0.00  0.00    +0.000 C 
ATOM     20  O5  UNL     1      -1.320  33.896  33.667  0.00  0.00    +0.000 OA
ATOM     21  C27 UNL     1       0.444  32.351  28.307  0.00  0.00    +0.000 C 
ENDROOT
BRANCH   1  22
ATOM     22  C7  UNL     1       1.036  35.027  26.250  0.00  0.00    +0.000 C 
ATOM     23  C8  UNL     1       1.577  36.408  25.826  0.00  0.00    +0.000 C 
BRANCH  22  30
ATOM     24  C1  UNL     1      -3.358  32.321  25.842  0.00  0.00    +0.000 C 
ATOM     25  C2  UNL     1      -2.630  33.600  26.155  0.00  0.00    +0.000 C 
ATOM     26  C3  UNL     1      -3.317  34.742  26.343  0.00  0.00    +0.000 C 
ATOM     27  C4  UNL     1      -2.581  35.985  26.639  0.00  0.00    +0.000 C 
ATOM     28  O1  UNL     1      -3.192  37.025  27.000  0.00  0.00    +0.000 OA
ATOM     29  O2  UNL     1      -1.190  36.001  26.530  0.00  0.00    +0.000 OA
ATOM     30  C5  UNL     1      -0.487  34.915  25.922  0.00  0.00    +0.000 C 
ATOM     31  C6  UNL     1      -1.127  33.571  26.345  0.00  0.00    +0.000 C 
BRANCH  26  32
ATOM     32  O6  UNL     1      -4.711  34.749  26.253  0.00  0.00    +0.000 OA
ATOM     33  H38 UNL     1      -5.189  34.520  25.390  0.00  0.00    +0.000 HD
ENDBRANCH  26  32
ENDBRANCH  22  30
ENDBRANCH   1  22
BRANCH  18  34
ATOM     34  O4  UNL     1      -3.531  31.320  34.335  0.00  0.00    +0.000 OA
ATOM     35  H31 UNL     1      -2.776  30.911  33.838  0.00  0.00    +0.000 HD
ENDBRANCH  18  34
TORSDOF 4
ENDMDL
