MODEL 1
REMARK VINA RESULT:      -5.4      0.000      0.000
REMARK  Name = .\Withaferin A.pdb
REMARK  8 active torsions:
REMARK  status: ('A' for Active; 'I' for Inactive)
REMARK    1  A    between atoms: C1_1  and  C2_2
REMARK    2  A    between atoms: C3_3  and  O6_33
REMARK    3  A    between atoms: C5_7  and  C7_9
REMARK    4  A    between atoms: C7_9  and  C8_10
REMARK    5  A    between atoms: C7_9  and  C9_11
REMARK    6  A    between atoms: C13_15  and  C27_32
REMARK    7  A    between atoms: C21_23  and  C26_30
REMARK    8  A    between atoms: C25_28  and  O4_29
REMARK                            x       y       z     vdW  Elec       q    Type
REMARK                         _______ _______ _______ _____ _____    ______ ____
ROOT
ATOM      1  C9  UNL     1     -16.664  58.883  35.369  0.00  0.00    +0.000 C 
ATOM      2  C10 UNL     1     -16.848  60.280  34.756  0.00  0.00    +0.000 C 
ATOM      3  C11 UNL     1     -15.808  61.192  35.390  0.00  0.00    +0.000 C 
ATOM      4  C12 UNL     1     -14.983  60.330  36.358  0.00  0.00    +0.000 C 
ATOM      5  C13 UNL     1     -15.901  59.137  36.713  0.00  0.00    +0.000 C 
ATOM      6  C14 UNL     1     -16.870  59.554  37.850  0.00  0.00    +0.000 C 
ATOM      7  C15 UNL     1     -16.126  60.040  39.086  0.00  0.00    +0.000 C 
ATOM      8  C16 UNL     1     -15.278  61.312  38.826  0.00  0.00    +0.000 C 
ATOM      9  C17 UNL     1     -14.394  61.181  37.540  0.00  0.00    +0.000 C 
ATOM     10  C18 UNL     1     -12.934  60.828  37.887  0.00  0.00    +0.000 C 
ATOM     11  C19 UNL     1     -12.279  61.916  38.754  0.00  0.00    +0.000 C 
ATOM     12  C20 UNL     1     -13.087  62.444  39.880  0.00  0.00    +0.000 C 
ATOM     13  C21 UNL     1     -14.502  61.820  40.145  0.00  0.00    +0.000 C 
ATOM     14  C22 UNL     1     -15.344  62.874  40.858  0.00  0.00    +0.000 C 
ATOM     15  O3  UNL     1     -16.530  62.668  41.076  0.00  0.00    +0.000 OA
ATOM     16  C23 UNL     1     -14.728  64.171  41.324  0.00  0.00    +0.000 C 
ATOM     17  C24 UNL     1     -13.367  63.899  41.975  0.00  0.00    +0.000 C 
ATOM     18  C25 UNL     1     -12.365  63.224  41.006  0.00  0.00    +0.000 C 
ATOM     19  C26 UNL     1     -14.261  60.673  41.167  0.00  0.00    +0.000 C 
ATOM     20  O5  UNL     1     -12.964  63.152  38.669  0.00  0.00    +0.000 OA
ATOM     21  C27 UNL     1     -15.041  57.909  37.114  0.00  0.00    +0.000 C 
ENDROOT
BRANCH   1  22
ATOM     22  C7  UNL     1     -18.014  58.075  35.419  0.00  0.00    +0.000 C 
ATOM     23  C8  UNL     1     -17.918  56.726  34.675  0.00  0.00    +0.000 C 
BRANCH  22  30
ATOM     24  C1  UNL     1     -22.049  58.740  32.247  0.00  0.00    +0.000 C 
ATOM     25  C2  UNL     1     -21.392  58.920  33.587  0.00  0.00    +0.000 C 
ATOM     26  C3  UNL     1     -21.952  59.721  34.513  0.00  0.00    +0.000 C 
ATOM     27  C4  UNL     1     -21.284  59.891  35.818  0.00  0.00    +0.000 C 
ATOM     28  O1  UNL     1     -21.864  60.480  36.767  0.00  0.00    +0.000 OA
ATOM     29  O2  UNL     1     -19.999  59.379  36.002  0.00  0.00    +0.000 OA
ATOM     30  C5  UNL     1     -19.232  58.900  34.895  0.00  0.00    +0.000 C 
ATOM     31  C6  UNL     1     -20.146  58.123  33.918  0.00  0.00    +0.000 C 
BRANCH  26  32
ATOM     32  O6  UNL     1     -23.147  60.389  34.239  0.00  0.00    +0.000 OA
ATOM     33  H38 UNL     1     -23.843  59.999  33.615  0.00  0.00    +0.000 HD
ENDBRANCH  26  32
ENDBRANCH  22  30
ENDBRANCH   1  22
BRANCH  18  34
ATOM     34  O4  UNL     1     -11.523  62.348  41.709  0.00  0.00    +0.000 OA
ATOM     35  H31 UNL     1     -11.494  62.671  42.647  0.00  0.00    +0.000 HD
ENDBRANCH  18  34
TORSDOF 4
ENDMDL
MODEL 2
REMARK VINA RESULT:      -4.5      2.336      4.197
REMARK  Name = .\Withaferin A.pdb
REMARK  8 active torsions:
REMARK  status: ('A' for Active; 'I' for Inactive)
REMARK    1  A    between atoms: C1_1  and  C2_2
REMARK    2  A    between atoms: C3_3  and  O6_33
REMARK    3  A    between atoms: C5_7  and  C7_9
REMARK    4  A    between atoms: C7_9  and  C8_10
REMARK    5  A    between atoms: C7_9  and  C9_11
REMARK    6  A    between atoms: C13_15  and  C27_32
REMARK    7  A    between atoms: C21_23  and  C26_30
REMARK    8  A    between atoms: C25_28  and  O4_29
REMARK                            x       y       z     vdW  Elec       q    Type
REMARK                         _______ _______ _______ _____ _____    ______ ____
ROOT
ATOM      1  C9  UNL     1     -20.414  59.616  37.063  0.00  0.00    +0.000 C 
ATOM      2  C10 UNL     1     -20.284  59.163  38.526  0.00  0.00    +0.000 C 
ATOM      3  C11 UNL     1     -18.942  59.666  39.037  0.00  0.00    +0.000 C 
ATOM      4  C12 UNL     1     -18.287  60.448  37.888  0.00  0.00    +0.000 C 
ATOM      5  C13 UNL     1     -18.944  59.895  36.602  0.00  0.00    +0.000 C 
ATOM      6  C14 UNL     1     -18.223  58.589  36.176  0.00  0.00    +0.000 C 
ATOM      7  C15 UNL     1     -16.731  58.804  35.962  0.00  0.00    +0.000 C 
ATOM      8  C16 UNL     1     -15.987  59.245  37.250  0.00  0.00    +0.000 C 
ATOM      9  C17 UNL     1     -16.719  60.419  37.982  0.00  0.00    +0.000 C 
ATOM     10  C18 UNL     1     -16.058  61.779  37.678  0.00  0.00    +0.000 C 
ATOM     11  C19 UNL     1     -14.596  61.815  38.153  0.00  0.00    +0.000 C 
ATOM     12  C20 UNL     1     -13.767  60.626  37.844  0.00  0.00    +0.000 C 
ATOM     13  C21 UNL     1     -14.408  59.461  37.010  0.00  0.00    +0.000 C 
ATOM     14  C22 UNL     1     -13.659  58.178  37.360  0.00  0.00    +0.000 C 
ATOM     15  O3  UNL     1     -14.045  57.104  36.921  0.00  0.00    +0.000 OA
ATOM     16  C23 UNL     1     -12.424  58.215  38.227  0.00  0.00    +0.000 C 
ATOM     17  C24 UNL     1     -11.523  59.381  37.804  0.00  0.00    +0.000 C 
ATOM     18  C25 UNL     1     -12.226  60.756  37.929  0.00  0.00    +0.000 C 
ATOM     19  C26 UNL     1     -14.074  59.785  35.526  0.00  0.00    +0.000 C 
ATOM     20  O5  UNL     1     -14.323  60.820  39.123  0.00  0.00    +0.000 OA
ATOM     21  C27 UNL     1     -18.899  60.968  35.481  0.00  0.00    +0.000 C 
ENDROOT
BRANCH   1  22
ATOM     22  C7  UNL     1     -21.289  58.624  36.210  0.00  0.00    +0.000 C 
ATOM     23  C8  UNL     1     -20.537  57.320  35.873  0.00  0.00    +0.000 C 
BRANCH  22  30
ATOM     24  C1  UNL     1     -23.147  62.673  33.576  0.00  0.00    +0.000 C 
ATOM     25  C2  UNL     1     -22.351  61.398  33.631  0.00  0.00    +0.000 C 
ATOM     26  C3  UNL     1     -21.919  60.821  32.494  0.00  0.00    +0.000 C 
ATOM     27  C4  UNL     1     -21.149  59.565  32.571  0.00  0.00    +0.000 C 
ATOM     28  O1  UNL     1     -20.575  59.098  31.552  0.00  0.00    +0.000 OA
ATOM     29  O2  UNL     1     -21.045  58.899  33.792  0.00  0.00    +0.000 OA
ATOM     30  C5  UNL     1     -21.852  59.279  34.910  0.00  0.00    +0.000 C 
ATOM     31  C6  UNL     1     -21.964  60.821  34.977  0.00  0.00    +0.000 C 
BRANCH  26  32
ATOM     32  O6  UNL     1     -22.203  61.401  31.256  0.00  0.00    +0.000 OA
ATOM     33  H38 UNL     1     -21.600  62.105  30.847  0.00  0.00    +0.000 HD
ENDBRANCH  26  32
ENDBRANCH  22  30
ENDBRANCH   1  22
BRANCH  18  34
ATOM     34  O4  UNL     1     -11.778  61.624  36.921  0.00  0.00    +0.000 OA
ATOM     35  H31 UNL     1     -12.581  62.084  36.562  0.00  0.00    +0.000 HD
ENDBRANCH  18  34
TORSDOF 4
ENDMDL
MODEL 3
REMARK VINA RESULT:      -4.2      1.106      1.568
REMARK  Name = .\Withaferin A.pdb
REMARK  8 active torsions:
REMARK  status: ('A' for Active; 'I' for Inactive)
REMARK    1  A    between atoms: C1_1  and  C2_2
REMARK    2  A    between atoms: C3_3  and  O6_33
REMARK    3  A    between atoms: C5_7  and  C7_9
REMARK    4  A    between atoms: C7_9  and  C8_10
REMARK    5  A    between atoms: C7_9  and  C9_11
REMARK    6  A    between atoms: C13_15  and  C27_32
REMARK    7  A    between atoms: C21_23  and  C26_30
REMARK    8  A    between atoms: C25_28  and  O4_29
REMARK                            x       y       z     vdW  Elec       q    Type
REMARK                         _______ _______ _______ _____ _____    ______ ____
ROOT
ATOM      1  C9  UNL     1     -17.262  59.059  35.195  0.00  0.00    +0.000 C 
ATOM      2  C10 UNL     1     -17.748  60.462  34.797  0.00  0.00    +0.000 C 
ATOM      3  C11 UNL     1     -16.740  61.461  35.348  0.00  0.00    +0.000 C 
ATOM      4  C12 UNL     1     -15.638  60.651  36.046  0.00  0.00    +0.000 C 
ATOM      5  C13 UNL     1     -16.300  59.301  36.407  0.00  0.00    +0.000 C 
ATOM      6  C14 UNL     1     -17.085  59.452  37.737  0.00  0.00    +0.000 C 
ATOM      7  C15 UNL     1     -16.193  59.929  38.875  0.00  0.00    +0.000 C 
ATOM      8  C16 UNL     1     -15.590  61.337  38.629  0.00  0.00    +0.000 C 
ATOM      9  C17 UNL     1     -14.957  61.467  37.203  0.00  0.00    +0.000 C 
ATOM     10  C18 UNL     1     -13.423  61.315  37.247  0.00  0.00    +0.000 C 
ATOM     11  C19 UNL     1     -12.770  62.405  38.112  0.00  0.00    +0.000 C 
ATOM     12  C20 UNL     1     -13.415  62.692  39.417  0.00  0.00    +0.000 C 
ATOM     13  C21 UNL     1     -14.656  61.832  39.846  0.00  0.00    +0.000 C 
ATOM     14  C22 UNL     1     -15.483  62.670  40.816  0.00  0.00    +0.000 C 
ATOM     15  O3  UNL     1     -16.567  62.261  41.209  0.00  0.00    +0.000 OA
ATOM     16  C23 UNL     1     -14.973  63.997  41.322  0.00  0.00    +0.000 C 
ATOM     17  C24 UNL     1     -13.488  63.880  41.690  0.00  0.00    +0.000 C 
ATOM     18  C25 UNL     1     -12.606  63.465  40.487  0.00  0.00    +0.000 C 
ATOM     19  C26 UNL     1     -14.072  60.645  40.663  0.00  0.00    +0.000 C 
ATOM     20  O5  UNL     1     -13.621  63.522  38.298  0.00  0.00    +0.000 OA
ATOM     21  C27 UNL     1     -15.221  58.189  36.501  0.00  0.00    +0.000 C 
ENDROOT
BRANCH   1  22
ATOM     22  C7  UNL     1     -18.455  58.050  35.379  0.00  0.00    +0.000 C 
ATOM     23  C8  UNL     1     -18.159  56.671  34.752  0.00  0.00    +0.000 C 
BRANCH  22  30
ATOM     24  C1  UNL     1     -22.937  60.553  36.040  0.00  0.00    +0.000 C 
ATOM     25  C2  UNL     1     -21.753  60.188  35.188  0.00  0.00    +0.000 C 
ATOM     26  C3  UNL     1     -21.739  60.500  33.879  0.00  0.00    +0.000 C 
ATOM     27  C4  UNL     1     -20.572  60.123  33.060  0.00  0.00    +0.000 C 
ATOM     28  O1  UNL     1     -20.441  60.555  31.885  0.00  0.00    +0.000 OA
ATOM     29  O2  UNL     1     -19.594  59.288  33.604  0.00  0.00    +0.000 OA
ATOM     30  C5  UNL     1     -19.810  58.611  34.844  0.00  0.00    +0.000 C 
ATOM     31  C6  UNL     1     -20.541  59.549  35.835  0.00  0.00    +0.000 C 
BRANCH  26  32
ATOM     32  O6  UNL     1     -22.822  61.167  33.301  0.00  0.00    +0.000 OA
ATOM     33  H38 UNL     1     -23.537  61.608  33.865  0.00  0.00    +0.000 HD
ENDBRANCH  26  32
ENDBRANCH  22  30
ENDBRANCH   1  22
BRANCH  18  34
ATOM     34  O4  UNL     1     -11.534  62.668  40.922  0.00  0.00    +0.000 OA
ATOM     35  H31 UNL     1     -11.884  61.744  41.013  0.00  0.00    +0.000 HD
ENDBRANCH  18  34
TORSDOF 4
ENDMDL
MODEL 4
REMARK VINA RESULT:      -4.2      2.451      8.314
REMARK  Name = .\Withaferin A.pdb
REMARK  8 active torsions:
REMARK  status: ('A' for Active; 'I' for Inactive)
REMARK    1  A    between atoms: C1_1  and  C2_2
REMARK    2  A    between atoms: C3_3  and  O6_33
REMARK    3  A    between atoms: C5_7  and  C7_9
REMARK    4  A    between atoms: C7_9  and  C8_10
REMARK    5  A    between atoms: C7_9  and  C9_11
REMARK    6  A    between atoms: C13_15  and  C27_32
REMARK    7  A    between atoms: C21_23  and  C26_30
REMARK    8  A    between atoms: C25_28  and  O4_29
REMARK                            x       y       z     vdW  Elec       q    Type
REMARK                         _______ _______ _______ _____ _____    ______ ____
ROOT
ATOM      1  C9  UNL     1     -14.903  61.729  40.299  0.00  0.00    +0.000 C 
ATOM      2  C10 UNL     1     -15.705  63.031  40.450  0.00  0.00    +0.000 C 
ATOM      3  C11 UNL     1     -17.168  62.693  40.197  0.00  0.00    +0.000 C 
ATOM      4  C12 UNL     1     -17.240  61.183  39.928  0.00  0.00    +0.000 C 
ATOM      5  C13 UNL     1     -15.824  60.793  39.445  0.00  0.00    +0.000 C 
ATOM      6  C14 UNL     1     -15.695  61.096  37.929  0.00  0.00    +0.000 C 
ATOM      7  C15 UNL     1     -16.755  60.373  37.110  0.00  0.00    +0.000 C 
ATOM      8  C16 UNL     1     -18.201  60.809  37.462  0.00  0.00    +0.000 C 
ATOM      9  C17 UNL     1     -18.457  60.812  39.006  0.00  0.00    +0.000 C 
ATOM     10  C18 UNL     1     -19.213  59.546  39.460  0.00  0.00    +0.000 C 
ATOM     11  C19 UNL     1     -20.593  59.441  38.791  0.00  0.00    +0.000 C 
ATOM     12  C20 UNL     1     -20.650  59.724  37.337  0.00  0.00    +0.000 C 
ATOM     13  C21 UNL     1     -19.312  60.041  36.581  0.00  0.00    +0.000 C 
ATOM     14  C22 UNL     1     -19.662  60.881  35.357  0.00  0.00    +0.000 C 
ATOM     15  O3  UNL     1     -18.773  61.352  34.661  0.00  0.00    +0.000 OA
ATOM     16  C23 UNL     1     -21.101  61.125  34.971  0.00  0.00    +0.000 C 
ATOM     17  C24 UNL     1     -21.904  59.824  35.099  0.00  0.00    +0.000 C 
ATOM     18  C25 UNL     1     -21.893  59.255  36.540  0.00  0.00    +0.000 C 
ATOM     19  C26 UNL     1     -18.802  58.670  36.053  0.00  0.00    +0.000 C 
ATOM     20  O5  UNL     1     -21.041  60.686  38.288  0.00  0.00    +0.000 OA
ATOM     21  C27 UNL     1     -15.551  59.297  39.756  0.00  0.00    +0.000 C 
ENDROOT
BRANCH   1  22
ATOM     22  C7  UNL     1     -13.435  61.992  39.799  0.00  0.00    +0.000 C 
ATOM     23  C8  UNL     1     -13.397  62.850  38.517  0.00  0.00    +0.000 C 
BRANCH  22  30
ATOM     24  C1  UNL     1     -11.699  57.401  41.442  0.00  0.00    +0.000 C 
ATOM     25  C2  UNL     1     -12.180  58.302  40.338  0.00  0.00    +0.000 C 
ATOM     26  C3  UNL     1     -12.075  57.913  39.053  0.00  0.00    +0.000 C 
ATOM     27  C4  UNL     1     -12.544  58.817  37.986  0.00  0.00    +0.000 C 
ATOM     28  O1  UNL     1     -12.633  58.418  36.795  0.00  0.00    +0.000 OA
ATOM     29  O2  UNL     1     -12.908  60.126  38.308  0.00  0.00    +0.000 OA
ATOM     30  C5  UNL     1     -12.621  60.675  39.596  0.00  0.00    +0.000 C 
ATOM     31  C6  UNL     1     -12.864  59.607  40.689  0.00  0.00    +0.000 C 
BRANCH  26  32
ATOM     32  O6  UNL     1     -11.523  56.671  38.734  0.00  0.00    +0.000 OA
ATOM     33  H38 UNL     1     -12.102  55.855  38.581  0.00  0.00    +0.000 HD
ENDBRANCH  26  32
ENDBRANCH  22  30
ENDBRANCH   1  22
BRANCH  18  34
ATOM     34  O4  UNL     1     -21.921  57.852  36.509  0.00  0.00    +0.000 OA
ATOM     35  H31 UNL     1     -22.554  57.563  37.217  0.00  0.00    +0.000 HD
ENDBRANCH  18  34
TORSDOF 4
ENDMDL
MODEL 5
REMARK VINA RESULT:      -3.7      2.894      5.076
REMARK  Name = .\Withaferin A.pdb
REMARK  8 active torsions:
REMARK  status: ('A' for Active; 'I' for Inactive)
REMARK    1  A    between atoms: C1_1  and  C2_2
REMARK    2  A    between atoms: C3_3  and  O6_33
REMARK    3  A    between atoms: C5_7  and  C7_9
REMARK    4  A    between atoms: C7_9  and  C8_10
REMARK    5  A    between atoms: C7_9  and  C9_11
REMARK    6  A    between atoms: C13_15  and  C27_32
REMARK    7  A    between atoms: C21_23  and  C26_30
REMARK    8  A    between atoms: C25_28  and  O4_29
REMARK                            x       y       z     vdW  Elec       q    Type
REMARK                         _______ _______ _______ _____ _____    ______ ____
ROOT
ATOM      1  C9  UNL     1     -18.655  59.674  42.069  0.00  0.00    +0.000 C 
ATOM      2  C10 UNL     1     -17.867  58.414  42.462  0.00  0.00    +0.000 C 
ATOM      3  C11 UNL     1     -16.435  58.610  41.985  0.00  0.00    +0.000 C 
ATOM      4  C12 UNL     1     -16.362  60.001  41.338  0.00  0.00    +0.000 C 
ATOM      5  C13 UNL     1     -17.815  60.323  40.918  0.00  0.00    +0.000 C 
ATOM      6  C14 UNL     1     -18.115  59.659  39.549  0.00  0.00    +0.000 C 
ATOM      7  C15 UNL     1     -17.137  60.106  38.471  0.00  0.00    +0.000 C 
ATOM      8  C16 UNL     1     -15.670  59.705  38.773  0.00  0.00    +0.000 C 
ATOM      9  C17 UNL     1     -15.246  60.074  40.234  0.00  0.00    +0.000 C 
ATOM     10  C18 UNL     1     -14.421  61.376  40.276  0.00  0.00    +0.000 C 
ATOM     11  C19 UNL     1     -13.120  61.247  39.466  0.00  0.00    +0.000 C 
ATOM     12  C20 UNL     1     -13.228  60.609  38.132  0.00  0.00    +0.000 C 
ATOM     13  C21 UNL     1     -14.647  60.177  37.620  0.00  0.00    +0.000 C 
ATOM     14  C22 UNL     1     -14.450  59.043  36.618  0.00  0.00    +0.000 C 
ATOM     15  O3  UNL     1     -15.419  58.456  36.157  0.00  0.00    +0.000 OA
ATOM     16  C23 UNL     1     -13.067  58.645  36.163  0.00  0.00    +0.000 C 
ATOM     17  C24 UNL     1     -12.229  59.898  35.878  0.00  0.00    +0.000 C 
ATOM     18  C25 UNL     1     -12.072  60.807  37.122  0.00  0.00    +0.000 C 
ATOM     19  C26 UNL     1     -15.184  61.396  36.818  0.00  0.00    +0.000 C 
ATOM     20  O5  UNL     1     -12.755  59.896  39.251  0.00  0.00    +0.000 OA
ATOM     21  C27 UNL     1     -18.023  61.861  40.868  0.00  0.00    +0.000 C 
ENDROOT
BRANCH   1  22
ATOM     22  C7  UNL     1     -20.174  59.363  41.802  0.00  0.00    +0.000 C 
ATOM     23  C8  UNL     1     -20.608  58.004  42.390  0.00  0.00    +0.000 C 
BRANCH  22  30
ATOM     24  C1  UNL     1     -21.230  57.171  37.234  0.00  0.00    +0.000 C 
ATOM     25  C2  UNL     1     -21.442  58.267  38.242  0.00  0.00    +0.000 C 
ATOM     26  C3  UNL     1     -22.155  59.361  37.914  0.00  0.00    +0.000 C 
ATOM     27  C4  UNL     1     -22.341  60.427  38.916  0.00  0.00    +0.000 C 
ATOM     28  O1  UNL     1     -23.147  61.371  38.710  0.00  0.00    +0.000 OA
ATOM     29  O2  UNL     1     -21.624  60.376  40.112  0.00  0.00    +0.000 OA
ATOM     30  C5  UNL     1     -20.551  59.447  40.289  0.00  0.00    +0.000 C 
ATOM     31  C6  UNL     1     -20.925  58.086  39.655  0.00  0.00    +0.000 C 
BRANCH  26  32
ATOM     32  O6  UNL     1     -22.705  59.487  36.637  0.00  0.00    +0.000 OA
ATOM     33  H38 UNL     1     -22.211  59.172  35.811  0.00  0.00    +0.000 HD
ENDBRANCH  26  32
ENDBRANCH  22  30
ENDBRANCH   1  22
BRANCH  18  34
ATOM     34  O4  UNL     1     -12.019  62.155  36.735  0.00  0.00    +0.000 OA
ATOM     35  H31 UNL     1     -12.930  62.399  36.425  0.00  0.00    +0.000 HD
ENDBRANCH  18  34
TORSDOF 4
ENDMDL
MODEL 6
REMARK VINA RESULT:      -3.7      2.607      8.952
REMARK  Name = .\Withaferin A.pdb
REMARK  8 active torsions:
REMARK  status: ('A' for Active; 'I' for Inactive)
REMARK    1  A    between atoms: C1_1  and  C2_2
REMARK    2  A    between atoms: C3_3  and  O6_33
REMARK    3  A    between atoms: C5_7  and  C7_9
REMARK    4  A    between atoms: C7_9  and  C8_10
REMARK    5  A    between atoms: C7_9  and  C9_11
REMARK    6  A    between atoms: C13_15  and  C27_32
REMARK    7  A    between atoms: C21_23  and  C26_30
REMARK    8  A    between atoms: C25_28  and  O4_29
REMARK                            x       y       z     vdW  Elec       q    Type
REMARK                         _______ _______ _______ _____ _____    ______ ____
ROOT
ATOM      1  C9  UNL     1     -16.766  60.185  38.504  0.00  0.00    +0.000 C 
ATOM      2  C10 UNL     1     -17.755  61.018  39.334  0.00  0.00    +0.000 C 
ATOM      3  C11 UNL     1     -19.139  60.804  38.735  0.00  0.00    +0.000 C 
ATOM      4  C12 UNL     1     -18.977  59.817  37.569  0.00  0.00    +0.000 C 
ATOM      5  C13 UNL     1     -17.496  59.944  37.140  0.00  0.00    +0.000 C 
ATOM      6  C14 UNL     1     -17.338  61.156  36.186  0.00  0.00    +0.000 C 
ATOM      7  C15 UNL     1     -18.240  61.042  34.964  0.00  0.00    +0.000 C 
ATOM      8  C16 UNL     1     -19.750  61.033  35.318  0.00  0.00    +0.000 C 
ATOM      9  C17 UNL     1     -20.080  60.026  36.470  0.00  0.00    +0.000 C 
ATOM     10  C18 UNL     1     -20.663  58.708  35.923  0.00  0.00    +0.000 C 
ATOM     11  C19 UNL     1     -21.979  58.944  35.163  0.00  0.00    +0.000 C 
ATOM     12  C20 UNL     1     -22.005  60.087  34.219  0.00  0.00    +0.000 C 
ATOM     13  C21 UNL     1     -20.692  60.921  34.014  0.00  0.00    +0.000 C 
ATOM     14  C22 UNL     1     -21.100  62.319  33.558  0.00  0.00    +0.000 C 
ATOM     15  O3  UNL     1     -20.256  63.196  33.438  0.00  0.00    +0.000 OA
ATOM     16  C23 UNL     1     -22.538  62.635  33.227  0.00  0.00    +0.000 C 
ATOM     17  C24 UNL     1     -23.147  61.495  32.403  0.00  0.00    +0.000 C 
ATOM     18  C25 UNL     1     -23.125  60.139  33.151  0.00  0.00    +0.000 C 
ATOM     19  C26 UNL     1     -19.962  60.253  32.815  0.00  0.00    +0.000 C 
ATOM     20  O5  UNL     1     -22.578  60.181  35.502  0.00  0.00    +0.000 OA
ATOM     21  C27 UNL     1     -17.024  58.623  36.474  0.00  0.00    +0.000 C 
ENDROOT
BRANCH   1  22
ATOM     22  C7  UNL     1     -15.328  60.825  38.478  0.00  0.00    +0.000 C 
ATOM     23  C8  UNL     1     -14.895  61.235  37.055  0.00  0.00    +0.000 C 
BRANCH  22  30
ATOM     24  C1  UNL     1     -13.916  56.958  41.615  0.00  0.00    +0.000 C 
ATOM     25  C2  UNL     1     -13.724  57.765  40.360  0.00  0.00    +0.000 C 
ATOM     26  C3  UNL     1     -12.618  57.600  39.612  0.00  0.00    +0.000 C 
ATOM     27  C4  UNL     1     -12.446  58.409  38.391  0.00  0.00    +0.000 C 
ATOM     28  O1  UNL     1     -11.523  58.155  37.574  0.00  0.00    +0.000 OA
ATOM     29  O2  UNL     1     -13.329  59.459  38.135  0.00  0.00    +0.000 OA
ATOM     30  C5  UNL     1     -14.247  59.910  39.134  0.00  0.00    +0.000 C 
ATOM     31  C6  UNL     1     -14.827  58.697  39.900  0.00  0.00    +0.000 C 
BRANCH  26  32
ATOM     32  O6  UNL     1     -11.640  56.677  39.991  0.00  0.00    +0.000 OA
ATOM     33  H38 UNL     1     -11.114  56.148  39.306  0.00  0.00    +0.000 HD
ENDBRANCH  26  32
ENDBRANCH  22  30
ENDBRANCH   1  22
BRANCH  18  34
ATOM     34  O4  UNL     1     -22.946  59.085  32.241  0.00  0.00    +0.000 OA
ATOM     35  H31 UNL     1     -23.444  59.330  31.418  0.00  0.00    +0.000 HD
ENDBRANCH  18  34
TORSDOF 4
ENDMDL
MODEL 7
REMARK VINA RESULT:      -3.4      3.401      7.639
REMARK  Name = .\Withaferin A.pdb
REMARK  8 active torsions:
REMARK  status: ('A' for Active; 'I' for Inactive)
REMARK    1  A    between atoms: C1_1  and  C2_2
REMARK    2  A    between atoms: C3_3  and  O6_33
REMARK    3  A    between atoms: C5_7  and  C7_9
REMARK    4  A    between atoms: C7_9  and  C8_10
REMARK    5  A    between atoms: C7_9  and  C9_11
REMARK    6  A    between atoms: C13_15  and  C27_32
REMARK    7  A    between atoms: C21_23  and  C26_30
REMARK    8  A    between atoms: C25_28  and  O4_29
REMARK                            x       y       z     vdW  Elec       q    Type
REMARK                         _______ _______ _______ _____ _____    ______ ____
ROOT
ATOM      1  C9  UNL     1     -13.819  62.184  40.479  0.00  0.00    +0.000 C 
ATOM      2  C10 UNL     1     -14.361  63.229  39.492  0.00  0.00    +0.000 C 
ATOM      3  C11 UNL     1     -15.851  63.380  39.767  0.00  0.00    +0.000 C 
ATOM      4  C12 UNL     1     -16.188  62.449  40.941  0.00  0.00    +0.000 C 
ATOM      5  C13 UNL     1     -15.080  61.370  40.928  0.00  0.00    +0.000 C 
ATOM      6  C14 UNL     1     -15.444  60.269  39.899  0.00  0.00    +0.000 C 
ATOM      7  C15 UNL     1     -16.799  59.638  40.193  0.00  0.00    +0.000 C 
ATOM      8  C16 UNL     1     -17.974  60.646  40.102  0.00  0.00    +0.000 C 
ATOM      9  C17 UNL     1     -17.683  61.966  40.892  0.00  0.00    +0.000 C 
ATOM     10  C18 UNL     1     -18.379  61.972  42.267  0.00  0.00    +0.000 C 
ATOM     11  C19 UNL     1     -19.908  61.878  42.128  0.00  0.00    +0.000 C 
ATOM     12  C20 UNL     1     -20.427  60.882  41.160  0.00  0.00    +0.000 C 
ATOM     13  C21 UNL     1     -19.402  59.962  40.408  0.00  0.00    +0.000 C 
ATOM     14  C22 UNL     1     -20.050  59.526  39.097  0.00  0.00    +0.000 C 
ATOM     15  O3  UNL     1     -19.405  58.890  38.276  0.00  0.00    +0.000 OA
ATOM     16  C23 UNL     1     -21.494  59.850  38.803  0.00  0.00    +0.000 C 
ATOM     17  C24 UNL     1     -22.351  59.598  40.049  0.00  0.00    +0.000 C 
ATOM     18  C25 UNL     1     -21.913  60.459  41.260  0.00  0.00    +0.000 C 
ATOM     19  C26 UNL     1     -19.270  58.687  41.288  0.00  0.00    +0.000 C 
ATOM     20  O5  UNL     1     -20.351  62.250  40.836  0.00  0.00    +0.000 OA
ATOM     21  C27 UNL     1     -14.895  60.785  42.354  0.00  0.00    +0.000 C 
ENDROOT
BRANCH   1  22
ATOM     22  C7  UNL     1     -12.592  61.393  39.891  0.00  0.00    +0.000 C 
ATOM     23  C8  UNL     1     -11.590  62.319  39.168  0.00  0.00    +0.000 C 
BRANCH  22  30
ATOM     24  C1  UNL     1     -13.256  59.301  35.204  0.00  0.00    +0.000 C 
ATOM     25  C2  UNL     1     -12.913  59.168  36.663  0.00  0.00    +0.000 C 
ATOM     26  C3  UNL     1     -12.789  57.949  37.220  0.00  0.00    +0.000 C 
ATOM     27  C4  UNL     1     -12.464  57.843  38.655  0.00  0.00    +0.000 C 
ATOM     28  O1  UNL     1     -12.160  56.733  39.167  0.00  0.00    +0.000 OA
ATOM     29  O2  UNL     1     -12.478  58.991  39.448  0.00  0.00    +0.000 OA
ATOM     30  C5  UNL     1     -13.020  60.219  38.956  0.00  0.00    +0.000 C 
ATOM     31  C6  UNL     1     -12.621  60.414  37.474  0.00  0.00    +0.000 C 
BRANCH  26  32
ATOM     32  O6  UNL     1     -12.974  56.799  36.451  0.00  0.00    +0.000 OA
ATOM     33  H38 UNL     1     -13.452  55.984  36.817  0.00  0.00    +0.000 HD
ENDBRANCH  26  32
ENDBRANCH  22  30
ENDBRANCH   1  22
BRANCH  18  34
ATOM     34  O4  UNL     1     -22.115  59.754  42.457  0.00  0.00    +0.000 OA
ATOM     35  H31 UNL     1     -21.514  60.161  43.134  0.00  0.00    +0.000 HD
ENDBRANCH  18  34
TORSDOF 4
ENDMDL
