MODEL 1
REMARK VINA RESULT:      -5.6      0.000      0.000
REMARK  Name = .\Withaferin A.pdb
REMARK  8 active torsions:
REMARK  status: ('A' for Active; 'I' for Inactive)
REMARK    1  A    between atoms: C1_1  and  C2_2
REMARK    2  A    between atoms: C3_3  and  O6_33
REMARK    3  A    between atoms: C5_7  and  C7_9
REMARK    4  A    between atoms: C7_9  and  C8_10
REMARK    5  A    between atoms: C7_9  and  C9_11
REMARK    6  A    between atoms: C13_15  and  C27_32
REMARK    7  A    between atoms: C21_23  and  C26_30
REMARK    8  A    between atoms: C25_28  and  O4_29
REMARK                            x       y       z     vdW  Elec       q    Type
REMARK                         _______ _______ _______ _____ _____    ______ ____
ROOT
ATOM      1  C9  UNL     1      -4.433  70.814 -46.676  0.00  0.00    +0.000 C 
ATOM      2  C10 UNL     1      -4.756  70.156 -45.325  0.00  0.00    +0.000 C 
ATOM      3  C11 UNL     1      -6.247  70.343 -45.078  0.00  0.00    +0.000 C 
ATOM      4  C12 UNL     1      -6.816  71.083 -46.296  0.00  0.00    +0.000 C 
ATOM      5  C13 UNL     1      -5.607  71.821 -46.918  0.00  0.00    +0.000 C 
ATOM      6  C14 UNL     1      -5.377  73.157 -46.165  0.00  0.00    +0.000 C 
ATOM      7  C15 UNL     1      -6.614  74.046 -46.189  0.00  0.00    +0.000 C 
ATOM      8  C16 UNL     1      -7.834  73.413 -45.471  0.00  0.00    +0.000 C 
ATOM      9  C17 UNL     1      -8.083  71.934 -45.923  0.00  0.00    +0.000 C 
ATOM     10  C18 UNL     1      -9.218  71.841 -46.962  0.00  0.00    +0.000 C 
ATOM     11  C19 UNL     1     -10.552  72.350 -46.391  0.00  0.00    +0.000 C 
ATOM     12  C20 UNL     1     -10.504  73.615 -45.618  0.00  0.00    +0.000 C 
ATOM     13  C21 UNL     1      -9.133  74.368 -45.496  0.00  0.00    +0.000 C 
ATOM     14  C22 UNL     1      -9.177  75.202 -44.220  0.00  0.00    +0.000 C 
ATOM     15  O3  UNL     1      -8.179  75.798 -43.841  0.00  0.00    +0.000 OA
ATOM     16  C23 UNL     1     -10.451  75.324 -43.419  0.00  0.00    +0.000 C 
ATOM     17  C24 UNL     1     -11.641  75.542 -44.361  0.00  0.00    +0.000 C 
ATOM     18  C25 UNL     1     -11.827  74.378 -45.367  0.00  0.00    +0.000 C 
ATOM     19  C26 UNL     1      -9.106  75.369 -46.686  0.00  0.00    +0.000 C 
ATOM     20  O5  UNL     1     -10.557  72.363 -44.975  0.00  0.00    +0.000 OA
ATOM     21  C27 UNL     1      -5.849  72.050 -48.434  0.00  0.00    +0.000 C 
ENDROOT
BRANCH   1  22
ATOM     22  C7  UNL     1      -2.958  71.360 -46.731  0.00  0.00    +0.000 C 
ATOM     23  C8  UNL     1      -1.953  70.289 -47.205  0.00  0.00    +0.000 C 
BRANCH  22  30
ATOM     24  C1  UNL     1      -0.218  71.208 -42.343  0.00  0.00    +0.000 C 
ATOM     25  C2  UNL     1      -0.813  71.976 -43.490  0.00  0.00    +0.000 C 
ATOM     26  C3  UNL     1      -0.819  73.322 -43.473  0.00  0.00    +0.000 C 
ATOM     27  C4  UNL     1      -1.418  74.055 -44.604  0.00  0.00    +0.000 C 
ATOM     28  O1  UNL     1      -1.279  75.301 -44.711  0.00  0.00    +0.000 OA
ATOM     29  O2  UNL     1      -2.133  73.351 -45.574  0.00  0.00    +0.000 OA
ATOM     30  C5  UNL     1      -2.492  71.982 -45.376  0.00  0.00    +0.000 C 
ATOM     31  C6  UNL     1      -1.323  71.224 -44.703  0.00  0.00    +0.000 C 
BRANCH  26  32
ATOM     32  O6  UNL     1      -0.270  74.016 -42.392  0.00  0.00    +0.000 OA
ATOM     33  H38 UNL     1       0.481  73.627 -41.836  0.00  0.00    +0.000 HD
ENDBRANCH  26  32
ENDBRANCH  22  30
ENDBRANCH   1  22
BRANCH  18  34
ATOM     34  O4  UNL     1     -12.321  74.865 -46.588  0.00  0.00    +0.000 OA
ATOM     35  H31 UNL     1     -11.686  75.563 -46.895  0.00  0.00    +0.000 HD
ENDBRANCH  18  34
TORSDOF 4
ENDMDL
MODEL 2
REMARK VINA RESULT:      -3.9      1.654      8.465
REMARK  Name = .\Withaferin A.pdb
REMARK  8 active torsions:
REMARK  status: ('A' for Active; 'I' for Inactive)
REMARK    1  A    between atoms: C1_1  and  C2_2
REMARK    2  A    between atoms: C3_3  and  O6_33
REMARK    3  A    between atoms: C5_7  and  C7_9
REMARK    4  A    between atoms: C7_9  and  C8_10
REMARK    5  A    between atoms: C7_9  and  C9_11
REMARK    6  A    between atoms: C13_15  and  C27_32
REMARK    7  A    between atoms: C21_23  and  C26_30
REMARK    8  A    between atoms: C25_28  and  O4_29
REMARK                            x       y       z     vdW  Elec       q    Type
REMARK                         _______ _______ _______ _____ _____    ______ ____
ROOT
ATOM      1  C9  UNL     1      -7.389  73.255 -47.508  0.00  0.00    +0.000 C 
ATOM      2  C10 UNL     1      -6.562  72.910 -48.757  0.00  0.00    +0.000 C 
ATOM      3  C11 UNL     1      -5.370  72.084 -48.294  0.00  0.00    +0.000 C 
ATOM      4  C12 UNL     1      -5.504  71.910 -46.774  0.00  0.00    +0.000 C 
ATOM      5  C13 UNL     1      -6.390  73.092 -46.313  0.00  0.00    +0.000 C 
ATOM      6  C14 UNL     1      -5.509  74.355 -46.129  0.00  0.00    +0.000 C 
ATOM      7  C15 UNL     1      -4.375  74.121 -45.140  0.00  0.00    +0.000 C 
ATOM      8  C16 UNL     1      -3.377  73.028 -45.603  0.00  0.00    +0.000 C 
ATOM      9  C17 UNL     1      -4.106  71.727 -46.081  0.00  0.00    +0.000 C 
ATOM     10  C18 UNL     1      -4.095  70.636 -44.992  0.00  0.00    +0.000 C 
ATOM     11  C19 UNL     1      -2.662  70.219 -44.623  0.00  0.00    +0.000 C 
ATOM     12  C20 UNL     1      -1.680  71.313 -44.432  0.00  0.00    +0.000 C 
ATOM     13  C21 UNL     1      -2.178  72.797 -44.551  0.00  0.00    +0.000 C 
ATOM     14  C22 UNL     1      -0.979  73.654 -44.948  0.00  0.00    +0.000 C 
ATOM     15  O3  UNL     1      -1.133  74.838 -45.214  0.00  0.00    +0.000 OA
ATOM     16  C23 UNL     1       0.410  73.067 -44.997  0.00  0.00    +0.000 C 
ATOM     17  C24 UNL     1       0.644  72.177 -43.770  0.00  0.00    +0.000 C 
ATOM     18  C25 UNL     1      -0.361  71.001 -43.684  0.00  0.00    +0.000 C 
ATOM     19  C26 UNL     1      -2.571  73.217 -43.106  0.00  0.00    +0.000 C 
ATOM     20  O5  UNL     1      -1.727  70.570 -45.627  0.00  0.00    +0.000 OA
ATOM     21  C27 UNL     1      -7.134  72.715 -45.004  0.00  0.00    +0.000 C 
ENDROOT
BRANCH   1  22
ATOM     22  C7  UNL     1      -8.152  74.623 -47.662  0.00  0.00    +0.000 C 
ATOM     23  C8  UNL     1      -7.384  75.798 -47.021  0.00  0.00    +0.000 C 
BRANCH  22  30
ATOM     24  C1  UNL     1     -13.102  73.154 -48.017  0.00  0.00    +0.000 C 
ATOM     25  C2  UNL     1     -11.879  73.454 -47.194  0.00  0.00    +0.000 C 
ATOM     26  C3  UNL     1     -11.967  73.524 -45.852  0.00  0.00    +0.000 C 
ATOM     27  C4  UNL     1     -10.757  73.831 -45.066  0.00  0.00    +0.000 C 
ATOM     28  O1  UNL     1     -10.759  73.724 -43.812  0.00  0.00    +0.000 OA
ATOM     29  O2  UNL     1      -9.593  74.228 -45.726  0.00  0.00    +0.000 OA
ATOM     30  C5  UNL     1      -9.613  74.565 -47.115  0.00  0.00    +0.000 C 
ATOM     31  C6  UNL     1     -10.535  73.586 -47.880  0.00  0.00    +0.000 C 
BRANCH  26  32
ATOM     32  O6  UNL     1     -13.191  73.316 -45.213  0.00  0.00    +0.000 OA
ATOM     33  H38 UNL     1     -13.646  72.412 -45.217  0.00  0.00    +0.000 HD
ENDBRANCH  26  32
ENDBRANCH  22  30
ENDBRANCH   1  22
BRANCH  18  34
ATOM     34  O4  UNL     1      -0.648  70.704 -42.343  0.00  0.00    +0.000 OA
ATOM     35  H31 UNL     1      -0.213  69.834 -42.143  0.00  0.00    +0.000 HD
ENDBRANCH  18  34
TORSDOF 4
ENDMDL
MODEL 3
REMARK VINA RESULT:      -3.8      1.677      2.152
REMARK  Name = .\Withaferin A.pdb
REMARK  8 active torsions:
REMARK  status: ('A' for Active; 'I' for Inactive)
REMARK    1  A    between atoms: C1_1  and  C2_2
REMARK    2  A    between atoms: C3_3  and  O6_33
REMARK    3  A    between atoms: C5_7  and  C7_9
REMARK    4  A    between atoms: C7_9  and  C8_10
REMARK    5  A    between atoms: C7_9  and  C9_11
REMARK    6  A    between atoms: C13_15  and  C27_32
REMARK    7  A    between atoms: C21_23  and  C26_30
REMARK    8  A    between atoms: C25_28  and  O4_29
REMARK                            x       y       z     vdW  Elec       q    Type
REMARK                         _______ _______ _______ _____ _____    ______ ____
ROOT
ATOM      1  C9  UNL     1      -4.594  71.232 -45.299  0.00  0.00    +0.000 C 
ATOM      2  C10 UNL     1      -5.433  70.095 -44.695  0.00  0.00    +0.000 C 
ATOM      3  C11 UNL     1      -6.870  70.303 -45.150  0.00  0.00    +0.000 C 
ATOM      4  C12 UNL     1      -6.882  71.547 -46.051  0.00  0.00    +0.000 C 
ATOM      5  C13 UNL     1      -5.632  72.356 -45.633  0.00  0.00    +0.000 C 
ATOM      6  C14 UNL     1      -5.968  73.212 -44.383  0.00  0.00    +0.000 C 
ATOM      7  C15 UNL     1      -7.148  74.142 -44.628  0.00  0.00    +0.000 C 
ATOM      8  C16 UNL     1      -8.467  73.386 -44.935  0.00  0.00    +0.000 C 
ATOM      9  C17 UNL     1      -8.273  72.277 -46.023  0.00  0.00    +0.000 C 
ATOM     10  C18 UNL     1      -8.751  72.750 -47.410  0.00  0.00    +0.000 C 
ATOM     11  C19 UNL     1     -10.250  73.094 -47.405  0.00  0.00    +0.000 C 
ATOM     12  C20 UNL     1     -10.744  73.894 -46.259  0.00  0.00    +0.000 C 
ATOM     13  C21 UNL     1      -9.710  74.383 -45.184  0.00  0.00    +0.000 C 
ATOM     14  C22 UNL     1     -10.468  74.590 -43.876  0.00  0.00    +0.000 C 
ATOM     15  O3  UNL     1      -9.859  74.864 -42.851  0.00  0.00    +0.000 OA
ATOM     16  C23 UNL     1     -11.972  74.482 -43.828  0.00  0.00    +0.000 C 
ATOM     17  C24 UNL     1     -12.586  75.199 -45.038  0.00  0.00    +0.000 C 
ATOM     18  C25 UNL     1     -12.114  74.603 -46.388  0.00  0.00    +0.000 C 
ATOM     19  C26 UNL     1      -9.251  75.790 -45.664  0.00  0.00    +0.000 C 
ATOM     20  O5  UNL     1     -10.931  72.500 -46.315  0.00  0.00    +0.000 OA
ATOM     21  C27 UNL     1      -5.149  73.236 -46.817  0.00  0.00    +0.000 C 
ENDROOT
BRANCH   1  22
ATOM     22  C7  UNL     1      -3.358  71.601 -44.397  0.00  0.00    +0.000 C 
ATOM     23  C8  UNL     1      -3.763  71.878 -42.934  0.00  0.00    +0.000 C 
BRANCH  22  30
ATOM     24  C1  UNL     1      -0.339  75.761 -43.793  0.00  0.00    +0.000 C 
ATOM     25  C2  UNL     1      -0.746  74.538 -44.569  0.00  0.00    +0.000 C 
ATOM     26  C3  UNL     1      -0.249  74.321 -45.800  0.00  0.00    +0.000 C 
ATOM     27  C4  UNL     1      -0.671  73.121 -46.547  0.00  0.00    +0.000 C 
ATOM     28  O1  UNL     1      -0.093  72.789 -47.615  0.00  0.00    +0.000 OA
ATOM     29  O2  UNL     1      -1.714  72.337 -46.050  0.00  0.00    +0.000 OA
ATOM     30  C5  UNL     1      -2.527  72.793 -44.967  0.00  0.00    +0.000 C 
ATOM     31  C6  UNL     1      -1.649  73.511 -43.916  0.00  0.00    +0.000 C 
BRANCH  26  32
ATOM     32  O6  UNL     1       0.651  75.226 -46.368  0.00  0.00    +0.000 OA
ATOM     33  H38 UNL     1       0.400  75.794 -47.168  0.00  0.00    +0.000 HD
ENDBRANCH  26  32
ENDBRANCH  22  30
ENDBRANCH   1  22
BRANCH  18  34
ATOM     34  O4  UNL     1     -12.024  75.612 -47.360  0.00  0.00    +0.000 OA
ATOM     35  H31 UNL     1     -12.792  75.485 -47.975  0.00  0.00    +0.000 HD
ENDBRANCH  18  34
TORSDOF 4
ENDMDL
MODEL 4
REMARK VINA RESULT:      -2.6      1.832      8.044
REMARK  Name = .\Withaferin A.pdb
REMARK  8 active torsions:
REMARK  status: ('A' for Active; 'I' for Inactive)
REMARK    1  A    between atoms: C1_1  and  C2_2
REMARK    2  A    between atoms: C3_3  and  O6_33
REMARK    3  A    between atoms: C5_7  and  C7_9
REMARK    4  A    between atoms: C7_9  and  C8_10
REMARK    5  A    between atoms: C7_9  and  C9_11
REMARK    6  A    between atoms: C13_15  and  C27_32
REMARK    7  A    between atoms: C21_23  and  C26_30
REMARK    8  A    between atoms: C25_28  and  O4_29
REMARK                            x       y       z     vdW  Elec       q    Type
REMARK                         _______ _______ _______ _____ _____    ______ ____
ROOT
ATOM      1  C9  UNL     1      -7.228  70.456 -46.404  0.00  0.00    +0.000 C 
ATOM      2  C10 UNL     1      -6.865  71.203 -47.697  0.00  0.00    +0.000 C 
ATOM      3  C11 UNL     1      -5.373  71.503 -47.641  0.00  0.00    +0.000 C 
ATOM      4  C12 UNL     1      -4.843  70.906 -46.329  0.00  0.00    +0.000 C 
ATOM      5  C13 UNL     1      -6.078  70.813 -45.403  0.00  0.00    +0.000 C 
ATOM      6  C14 UNL     1      -6.319  72.188 -44.725  0.00  0.00    +0.000 C 
ATOM      7  C15 UNL     1      -5.101  72.660 -43.943  0.00  0.00    +0.000 C 
ATOM      8  C16 UNL     1      -3.854  72.891 -44.836  0.00  0.00    +0.000 C 
ATOM      9  C17 UNL     1      -3.586  71.685 -45.799  0.00  0.00    +0.000 C 
ATOM     10  C18 UNL     1      -2.470  70.766 -45.263  0.00  0.00    +0.000 C 
ATOM     11  C19 UNL     1      -1.135  71.516 -45.125  0.00  0.00    +0.000 C 
ATOM     12  C20 UNL     1      -1.192  72.866 -44.513  0.00  0.00    +0.000 C 
ATOM     13  C21 UNL     1      -2.574  73.398 -43.996  0.00  0.00    +0.000 C 
ATOM     14  C22 UNL     1      -2.520  74.922 -44.020  0.00  0.00    +0.000 C 
ATOM     15  O3  UNL     1      -3.522  75.576 -43.767  0.00  0.00    +0.000 OA
ATOM     16  C23 UNL     1      -1.233  75.646 -44.333  0.00  0.00    +0.000 C 
ATOM     17  C24 UNL     1      -0.066  74.981 -43.592  0.00  0.00    +0.000 C 
ATOM     18  C25 UNL     1       0.122  73.494 -43.986  0.00  0.00    +0.000 C 
ATOM     19  C26 UNL     1      -2.645  72.975 -42.501  0.00  0.00    +0.000 C 
ATOM     20  O5  UNL     1      -1.101  72.696 -45.908  0.00  0.00    +0.000 OA
ATOM     21  C27 UNL     1      -5.872  69.686 -44.356  0.00  0.00    +0.000 C 
ENDROOT
BRANCH   1  22
ATOM     22  C7  UNL     1      -8.714  70.726 -45.962  0.00  0.00    +0.000 C 
ATOM     23  C8  UNL     1      -9.721  69.821 -46.703  0.00  0.00    +0.000 C 
BRANCH  22  30
ATOM     24  C1  UNL     1      -8.833  75.198 -48.564  0.00  0.00    +0.000 C 
ATOM     25  C2  UNL     1      -9.470  74.210 -47.627  0.00  0.00    +0.000 C 
ATOM     26  C3  UNL     1     -10.589  74.539 -46.954  0.00  0.00    +0.000 C 
ATOM     27  C4  UNL     1     -11.191  73.557 -46.032  0.00  0.00    +0.000 C 
ATOM     28  O1  UNL     1     -12.327  73.757 -45.530  0.00  0.00    +0.000 OA
ATOM     29  O2  UNL     1     -10.494  72.387 -45.728  0.00  0.00    +0.000 OA
ATOM     30  C5  UNL     1      -9.124  72.226 -46.103  0.00  0.00    +0.000 C 
ATOM     31  C6  UNL     1      -8.894  72.812 -47.516  0.00  0.00    +0.000 C 
BRANCH  26  32
ATOM     32  O6  UNL     1     -11.169  75.798 -47.122  0.00  0.00    +0.000 OA
ATOM     33  H38 UNL     1     -12.001  76.073 -46.614  0.00  0.00    +0.000 HD
ENDBRANCH  26  32
ENDBRANCH  22  30
ENDBRANCH   1  22
BRANCH  18  34
ATOM     34  O4  UNL     1       0.580  72.754 -42.885  0.00  0.00    +0.000 OA
ATOM     35  H31 UNL     1       1.521  72.505 -43.080  0.00  0.00    +0.000 HD
ENDBRANCH  18  34
TORSDOF 4
ENDMDL
