MODEL 1
REMARK VINA RESULT:       3.3      0.000      0.000
REMARK  Name = .\Withaferin A.pdb
REMARK  8 active torsions:
REMARK  status: ('A' for Active; 'I' for Inactive)
REMARK    1  A    between atoms: C1_1  and  C2_2
REMARK    2  A    between atoms: C3_3  and  O6_33
REMARK    3  A    between atoms: C5_7  and  C7_9
REMARK    4  A    between atoms: C7_9  and  C8_10
REMARK    5  A    between atoms: C7_9  and  C9_11
REMARK    6  A    between atoms: C13_15  and  C27_32
REMARK    7  A    between atoms: C21_23  and  C26_30
REMARK    8  A    between atoms: C25_28  and  O4_29
REMARK                            x       y       z     vdW  Elec       q    Type
REMARK                         _______ _______ _______ _____ _____    ______ ____
ROOT
ATOM      1  C9  UNL     1     -10.794  34.362  21.392  0.00  0.00    +0.000 C 
ATOM      2  C10 UNL     1     -12.311  34.307  21.151  0.00  0.00    +0.000 C 
ATOM      3  C11 UNL     1     -12.575  34.948  19.795  0.00  0.00    +0.000 C 
ATOM      4  C12 UNL     1     -11.212  35.354  19.215  0.00  0.00    +0.000 C 
ATOM      5  C13 UNL     1     -10.281  35.496  20.442  0.00  0.00    +0.000 C 
ATOM      6  C14 UNL     1     -10.473  36.899  21.074  0.00  0.00    +0.000 C 
ATOM      7  C15 UNL     1     -10.211  38.017  20.074  0.00  0.00    +0.000 C 
ATOM      8  C16 UNL     1     -11.194  38.005  18.874  0.00  0.00    +0.000 C 
ATOM      9  C17 UNL     1     -11.334  36.580  18.240  0.00  0.00    +0.000 C 
ATOM     10  C18 UNL     1     -10.484  36.440  16.962  0.00  0.00    +0.000 C 
ATOM     11  C19 UNL     1     -10.920  37.440  15.879  0.00  0.00    +0.000 C 
ATOM     12  C20 UNL     1     -11.169  38.833  16.324  0.00  0.00    +0.000 C 
ATOM     13  C21 UNL     1     -10.910  39.198  17.828  0.00  0.00    +0.000 C 
ATOM     14  C22 UNL     1     -11.792  40.396  18.169  0.00  0.00    +0.000 C 
ATOM     15  O3  UNL     1     -11.855  40.803  19.321  0.00  0.00    +0.000 OA
ATOM     16  C23 UNL     1     -12.578  41.109  17.096  0.00  0.00    +0.000 C 
ATOM     17  C24 UNL     1     -11.707  41.297  15.848  0.00  0.00    +0.000 C 
ATOM     18  C25 UNL     1     -11.214  39.953  15.255  0.00  0.00    +0.000 C 
ATOM     19  C26 UNL     1      -9.438  39.695  17.884  0.00  0.00    +0.000 C 
ATOM     20  O5  UNL     1     -12.229  37.933  16.101  0.00  0.00    +0.000 OA
ATOM     21  C27 UNL     1      -8.807  35.254  20.019  0.00  0.00    +0.000 C 
ENDROOT
BRANCH   1  22
ATOM     22  C7  UNL     1     -10.440  34.453  22.923  0.00  0.00    +0.000 C 
ATOM     23  C8  UNL     1     -11.594  35.047  23.757  0.00  0.00    +0.000 C 
BRANCH  22  30
ATOM     24  C1  UNL     1      -5.517  35.608  21.818  0.00  0.00    +0.000 C 
ATOM     25  C2  UNL     1      -6.878  36.011  22.314  0.00  0.00    +0.000 C 
ATOM     26  C3  UNL     1      -7.059  37.210  22.898  0.00  0.00    +0.000 C 
ATOM     27  C4  UNL     1      -8.400  37.580  23.387  0.00  0.00    +0.000 C 
ATOM     28  O1  UNL     1      -8.647  38.754  23.768  0.00  0.00    +0.000 OA
ATOM     29  O2  UNL     1      -9.410  36.617  23.410  0.00  0.00    +0.000 OA
ATOM     30  C5  UNL     1      -9.116  35.235  23.191  0.00  0.00    +0.000 C 
ATOM     31  C6  UNL     1      -8.060  35.094  22.069  0.00  0.00    +0.000 C 
BRANCH  26  32
ATOM     32  O6  UNL     1      -5.985  38.091  23.045  0.00  0.00    +0.000 OA
ATOM     33  H38 UNL     1      -6.038  39.052  22.729  0.00  0.00    +0.000 HD
ENDBRANCH  26  32
ENDBRANCH  22  30
ENDBRANCH   1  22
BRANCH  18  34
ATOM     34  O4  UNL     1      -9.937  40.109  14.693  0.00  0.00    +0.000 OA
ATOM     35  H31 UNL     1      -9.323  40.341  15.438  0.00  0.00    +0.000 HD
ENDBRANCH  18  34
TORSDOF 4
ENDMDL
