MODEL 1
REMARK VINA RESULT:      -1.1      0.000      0.000
REMARK  Name = .\Withaferin A.pdb
REMARK  8 active torsions:
REMARK  status: ('A' for Active; 'I' for Inactive)
REMARK    1  A    between atoms: C1_1  and  C2_2
REMARK    2  A    between atoms: C3_3  and  O6_33
REMARK    3  A    between atoms: C5_7  and  C7_9
REMARK    4  A    between atoms: C7_9  and  C8_10
REMARK    5  A    between atoms: C7_9  and  C9_11
REMARK    6  A    between atoms: C13_15  and  C27_32
REMARK    7  A    between atoms: C21_23  and  C26_30
REMARK    8  A    between atoms: C25_28  and  O4_29
REMARK                            x       y       z     vdW  Elec       q    Type
REMARK                         _______ _______ _______ _____ _____    ______ ____
ROOT
ATOM      1  C9  UNL     1       4.593  56.348  83.177  0.00  0.00    +0.000 C 
ATOM      2  C10 UNL     1       6.016  56.698  83.638  0.00  0.00    +0.000 C 
ATOM      3  C11 UNL     1       6.045  58.194  83.917  0.00  0.00    +0.000 C 
ATOM      4  C12 UNL     1       4.629  58.728  83.654  0.00  0.00    +0.000 C 
ATOM      5  C13 UNL     1       3.989  57.707  82.686  0.00  0.00    +0.000 C 
ATOM      6  C14 UNL     1       4.423  58.032  81.233  0.00  0.00    +0.000 C 
ATOM      7  C15 UNL     1       4.052  59.453  80.830  0.00  0.00    +0.000 C 
ATOM      8  C16 UNL     1       4.759  60.535  81.689  0.00  0.00    +0.000 C 
ATOM      9  C17 UNL     1       4.647  60.239  83.222  0.00  0.00    +0.000 C 
ATOM     10  C18 UNL     1       3.540  61.083  83.884  0.00  0.00    +0.000 C 
ATOM     11  C19 UNL     1       3.822  62.589  83.753  0.00  0.00    +0.000 C 
ATOM     12  C20 UNL     1       4.272  63.067  82.423  0.00  0.00    +0.000 C 
ATOM     13  C21 UNL     1       4.364  62.034  81.246  0.00  0.00    +0.000 C 
ATOM     14  C22 UNL     1       5.393  62.560  80.250  0.00  0.00    +0.000 C 
ATOM     15  O3  UNL     1       5.728  61.874  79.294  0.00  0.00    +0.000 OA
ATOM     16  C23 UNL     1       5.994  63.934  80.412  0.00  0.00    +0.000 C 
ATOM     17  C24 UNL     1       4.901  64.942  80.788  0.00  0.00    +0.000 C 
ATOM     18  C25 UNL     1       4.186  64.582  82.114  0.00  0.00    +0.000 C 
ATOM     19  C26 UNL     1       2.981  62.094  80.537  0.00  0.00    +0.000 C 
ATOM     20  O5  UNL     1       5.185  62.856  83.475  0.00  0.00    +0.000 OA
ATOM     21  C27 UNL     1       2.445  57.726  82.841  0.00  0.00    +0.000 C 
ENDROOT
BRANCH   1  22
ATOM     22  C7  UNL     1       4.574  55.122  82.189  0.00  0.00    +0.000 C 
ATOM     23  C8  UNL     1       5.408  55.382  80.917  0.00  0.00    +0.000 C 
BRANCH  22  30
ATOM     24  C1  UNL     1      -0.429  54.422  83.313  0.00  0.00    +0.000 C 
ATOM     25  C2  UNL     1       0.658  54.762  82.332  0.00  0.00    +0.000 C 
ATOM     26  C3  UNL     1       0.378  54.867  81.020  0.00  0.00    +0.000 C 
ATOM     27  C4  UNL     1       1.463  55.191  80.074  0.00  0.00    +0.000 C 
ATOM     28  O1  UNL     1       1.209  55.476  78.875  0.00  0.00    +0.000 OA
ATOM     29  O2  UNL     1       2.784  55.196  80.524  0.00  0.00    +0.000 OA
ATOM     30  C5  UNL     1       3.127  54.674  81.809  0.00  0.00    +0.000 C 
ATOM     31  C6  UNL     1       2.050  55.076  82.844  0.00  0.00    +0.000 C 
BRANCH  26  32
ATOM     32  O6  UNL     1      -0.924  54.662  80.558  0.00  0.00    +0.000 OA
ATOM     33  H38 UNL     1      -1.442  53.822  80.782  0.00  0.00    +0.000 HD
ENDBRANCH  26  32
ENDBRANCH  22  30
ENDBRANCH   1  22
BRANCH  18  34
ATOM     34  O4  UNL     1       2.838  64.968  82.060  0.00  0.00    +0.000 OA
ATOM     35  H31 UNL     1       2.608  65.070  81.100  0.00  0.00    +0.000 HD
ENDBRANCH  18  34
TORSDOF 4
ENDMDL
