MODEL 1
REMARK VINA RESULT:      48.5      0.000      0.000
REMARK  Name = .\Withaferin A.pdb
REMARK  8 active torsions:
REMARK  status: ('A' for Active; 'I' for Inactive)
REMARK    1  A    between atoms: C1_1  and  C2_2
REMARK    2  A    between atoms: C3_3  and  O6_33
REMARK    3  A    between atoms: C5_7  and  C7_9
REMARK    4  A    between atoms: C7_9  and  C8_10
REMARK    5  A    between atoms: C7_9  and  C9_11
REMARK    6  A    between atoms: C13_15  and  C27_32
REMARK    7  A    between atoms: C21_23  and  C26_30
REMARK    8  A    between atoms: C25_28  and  O4_29
REMARK                            x       y       z     vdW  Elec       q    Type
REMARK                         _______ _______ _______ _____ _____    ______ ____
ROOT
ATOM      1  C9  UNL     1       3.807  45.821  27.364  0.00  0.00    +0.000 C 
ATOM      2  C10 UNL     1       3.149  46.483  26.143  0.00  0.00    +0.000 C 
ATOM      3  C11 UNL     1       3.876  45.972  24.906  0.00  0.00    +0.000 C 
ATOM      4  C12 UNL     1       4.945  44.981  25.390  0.00  0.00    +0.000 C 
ATOM      5  C13 UNL     1       5.221  45.376  26.860  0.00  0.00    +0.000 C 
ATOM      6  C14 UNL     1       6.235  46.548  26.897  0.00  0.00    +0.000 C 
ATOM      7  C15 UNL     1       7.536  46.201  26.186  0.00  0.00    +0.000 C 
ATOM      8  C16 UNL     1       7.346  45.912  24.674  0.00  0.00    +0.000 C 
ATOM      9  C17 UNL     1       6.169  44.916  24.407  0.00  0.00    +0.000 C 
ATOM     10  C18 UNL     1       6.681  43.484  24.153  0.00  0.00    +0.000 C 
ATOM     11  C19 UNL     1       7.593  43.420  22.917  0.00  0.00    +0.000 C 
ATOM     12  C20 UNL     1       8.612  44.489  22.786  0.00  0.00    +0.000 C 
ATOM     13  C21 UNL     1       8.732  45.554  23.932  0.00  0.00    +0.000 C 
ATOM     14  C22 UNL     1       9.327  46.820  23.323  0.00  0.00    +0.000 C 
ATOM     15  O3  UNL     1       9.417  47.840  23.993  0.00  0.00    +0.000 OA
ATOM     16  C23 UNL     1       9.832  46.832  21.901  0.00  0.00    +0.000 C 
ATOM     17  C24 UNL     1      10.635  45.556  21.621  0.00  0.00    +0.000 C 
ATOM     18  C25 UNL     1       9.795  44.268  21.812  0.00  0.00    +0.000 C 
ATOM     19  C26 UNL     1       9.797  44.986  24.913  0.00  0.00    +0.000 C 
ATOM     20  O5  UNL     1       7.408  44.530  22.057  0.00  0.00    +0.000 OA
ATOM     21  C27 UNL     1       5.738  44.144  27.651  0.00  0.00    +0.000 C 
ENDROOT
BRANCH   1  22
ATOM     22  C7  UNL     1       3.723  46.730  28.646  0.00  0.00    +0.000 C 
ATOM     23  C8  UNL     1       3.303  48.177  28.314  0.00  0.00    +0.000 C 
BRANCH  22  30
ATOM     24  C1  UNL     1       7.891  44.344  30.576  0.00  0.00    +0.000 C 
ATOM     25  C2  UNL     1       7.225  45.570  30.014  0.00  0.00    +0.000 C 
ATOM     26  C3  UNL     1       7.852  46.760  30.056  0.00  0.00    +0.000 C 
ATOM     27  C4  UNL     1       7.175  47.951  29.509  0.00  0.00    +0.000 C 
ATOM     28  O1  UNL     1       7.797  49.036  29.364  0.00  0.00    +0.000 OA
ATOM     29  O2  UNL     1       5.834  47.865  29.133  0.00  0.00    +0.000 OA
ATOM     30  C5  UNL     1       5.044  46.725  29.478  0.00  0.00    +0.000 C 
ATOM     31  C6  UNL     1       5.885  45.435  29.320  0.00  0.00    +0.000 C 
BRANCH  26  32
ATOM     32  O6  UNL     1       9.126  46.868  30.619  0.00  0.00    +0.000 OA
ATOM     33  H38 UNL     1       9.296  46.651  31.594  0.00  0.00    +0.000 HD
ENDBRANCH  26  32
ENDBRANCH  22  30
ENDBRANCH   1  22
BRANCH  18  34
ATOM     34  O4  UNL     1      10.605  43.227  22.295  0.00  0.00    +0.000 OA
ATOM     35  H31 UNL     1      10.051  42.707  22.934  0.00  0.00    +0.000 HD
ENDBRANCH  18  34
TORSDOF 4
ENDMDL
