REMARK  Name = .\Apigenin.pdb
REMARK  4 active torsions:
REMARK  status: ('A' for Active; 'I' for Inactive)
REMARK    1  A    between atoms: C3_3  and  O5_20
REMARK    2  A    between atoms: C6_6  and  C7_7
REMARK    3  A    between atoms: C11_12  and  O4_19
REMARK    4  A    between atoms: C13_14  and  O3_18
REMARK                            x       y       z     vdW  Elec       q    Type
REMARK                         _______ _______ _______ _____ _____    ______ ____
ROOT
ATOM      1  C7  UNL     1       0.565  -0.201   0.477  0.00  0.00    +0.000 A 
ATOM      2  C8  UNL     1       0.213  -1.189   1.410  0.00  0.00    +0.000 A 
ATOM      3  C9  UNL     1      -1.128  -1.534   1.586  0.00  0.00    +0.000 A 
ATOM      4  O1  UNL     1      -1.400  -2.423   2.432  0.00  0.00    +0.000 OA
ATOM      5  C10 UNL     1      -2.131  -0.886   0.825  0.00  0.00    +0.000 A 
ATOM      6  C11 UNL     1      -3.535  -1.151   0.915  0.00  0.00    +0.000 A 
ATOM      7  C12 UNL     1      -4.424  -0.437   0.102  0.00  0.00    +0.000 A 
ATOM      8  C13 UNL     1      -3.967   0.529  -0.797  0.00  0.00    +0.000 A 
ATOM      9  C14 UNL     1      -2.604   0.794  -0.892  0.00  0.00    +0.000 A 
ATOM     10  C15 UNL     1      -1.690   0.101  -0.096  0.00  0.00    +0.000 A 
ATOM     11  O2  UNL     1      -0.399   0.389  -0.223  0.00  0.00    +0.000 OA
ENDROOT
BRANCH   1  17
ATOM     12  C1  UNL     1       3.079  -0.335   0.916  0.00  0.00    +0.000 A 
ATOM     13  C2  UNL     1       4.382   0.097   0.648  0.00  0.00    +0.000 A 
ATOM     14  C3  UNL     1       4.614   1.092  -0.307  0.00  0.00    +0.000 A 
ATOM     15  C4  UNL     1       3.537   1.654  -0.993  0.00  0.00    +0.000 A 
ATOM     16  C5  UNL     1       2.233   1.227  -0.730  0.00  0.00    +0.000 A 
ATOM     17  C6  UNL     1       1.978   0.224   0.229  0.00  0.00    +0.000 A 
BRANCH  14  18
ATOM     18  O5  UNL     1       5.908   1.529  -0.580  0.00  0.00    +0.000 OA
ATOM     19  H10 UNL     1       6.711   1.140  -0.099  0.00  0.00    +0.000 HD
ENDBRANCH  14  18
ENDBRANCH   1  17
BRANCH   8  20
ATOM     20  O3  UNL     1      -4.862   1.232  -1.600  0.00  0.00    +0.000 OA
ATOM     21  H8  UNL     1      -5.860   1.064  -1.556  0.00  0.00    +0.000 HD
ENDBRANCH   8  20
BRANCH   6  22
ATOM     22  O4  UNL     1      -4.113  -2.092   1.774  0.00  0.00    +0.000 OA
ATOM     23  H9  UNL     1      -3.626  -2.688   2.422  0.00  0.00    +0.000 HD
ENDBRANCH   6  22
TORSDOF 4
