REMARK  Name = .\Carvone.pdb
REMARK  3 active torsions:
REMARK  status: ('A' for Active; 'I' for Inactive)
REMARK    1  A    between atoms: C1_1  and  C2_2
REMARK    2  A    between atoms: C7_8  and  C8_9
REMARK    3  A    between atoms: C7_8  and  C9_10
REMARK                            x       y       z     vdW  Elec       q    Type
REMARK                         _______ _______ _______ _____ _____    ______ ____
ROOT
ATOM      1  C1  UNL     1      -0.172   2.247  -0.170  0.00  0.00    +0.000 C 
ATOM      2  C2  UNL     1       0.389   0.846  -0.191  0.00  0.00    +0.000 C 
ATOM      3  C3  UNL     1       1.678   0.704  -0.538  0.00  0.00    +0.000 C 
ATOM      4  C4  UNL     1       2.311  -0.615  -0.587  0.00  0.00    +0.000 C 
ATOM      5  O1  UNL     1       3.522  -0.724  -0.915  0.00  0.00    +0.000 OA
ATOM      6  C5  UNL     1       1.532  -1.804  -0.254  0.00  0.00    +0.000 C 
ATOM      7  C6  UNL     1       0.250  -1.696   0.095  0.00  0.00    +0.000 C 
ATOM      8  C7  UNL     1      -0.491  -0.366   0.173  0.00  0.00    +0.000 C 
ATOM      9  C8  UNL     1      -1.683  -0.448  -0.801  0.00  0.00    +0.000 C 
ATOM     10  C9  UNL     1      -1.007  -0.213   1.617  0.00  0.00    +0.000 C 
ENDROOT
TORSDOF 0
