REMARK  Name = .\Carvacrol.pdb
REMARK  5 active torsions:
REMARK  status: ('A' for Active; 'I' for Inactive)
REMARK    1  A    between atoms: C1_1  and  C2_2
REMARK    2  A    between atoms: C2_2  and  C3_3
REMARK    3  A    between atoms: C2_2  and  C4_4
REMARK    4  A    between atoms: C6_6  and  O1_11
REMARK    5  A    between atoms: C7_7  and  C10_10
REMARK                            x       y       z     vdW  Elec       q    Type
REMARK                         _______ _______ _______ _____ _____    ______ ____
ROOT
ATOM      1  C4  UNL     1       0.558  -0.074   0.099  0.00  0.00    +0.000 A 
ATOM      2  C5  UNL     1      -0.284  -0.878   0.886  0.00  0.00    +0.000 A 
ATOM      3  C6  UNL     1      -1.678  -0.803   0.750  0.00  0.00    +0.000 A 
ATOM      4  C7  UNL     1      -2.246   0.084  -0.181  0.00  0.00    +0.000 A 
ATOM      5  C8  UNL     1      -1.407   0.888  -0.968  0.00  0.00    +0.000 A 
ATOM      6  C9  UNL     1      -0.019   0.810  -0.830  0.00  0.00    +0.000 A 
ATOM      7  C10 UNL     1      -3.738   0.170  -0.332  0.00  0.00    +0.000 C 
ENDROOT
BRANCH   1   9
ATOM      8  C1  UNL     1       2.729  -0.641  -1.039  0.00  0.00    +0.000 C 
ATOM      9  C2  UNL     1       2.064  -0.168   0.259  0.00  0.00    +0.000 C 
ATOM     10  C3  UNL     1       2.655   1.167   0.728  0.00  0.00    +0.000 C 
ENDBRANCH   1   9
BRANCH   3  11
ATOM     11  O1  UNL     1      -2.501  -1.607   1.539  0.00  0.00    +0.000 OA
ATOM     12  H14 UNL     1      -2.118  -2.255   2.218  0.00  0.00    +0.000 HD
ENDBRANCH   3  11
TORSDOF 2
