REMARK  Name = .\Catechins.pdb
REMARK  8 active torsions:
REMARK  status: ('A' for Active; 'I' for Inactive)
REMARK    1  A    between atoms: C3_3  and  O7_19
REMARK    2  A    between atoms: C4_4  and  O6_18
REMARK    3  A    between atoms: C6_6  and  C7_7
REMARK    4  A    between atoms: C8_8  and  O5_17
REMARK    5  A    between atoms: C9_9  and  O4_16
REMARK    6  A    between atoms: C10_10  and  O3_15
REMARK    7  A    between atoms: C11_11  and  C12_13
REMARK    8  A    between atoms: C12_13  and  O2_14
REMARK                            x       y       z     vdW  Elec       q    Type
REMARK                         _______ _______ _______ _____ _____    ______ ____
ROOT
ATOM      1  C7  UNL     1      -0.049  -0.020   0.443  0.00  0.00    +0.000 C 
ATOM      2  C8  UNL     1      -0.508  -1.450   0.054  0.00  0.00    +0.000 C 
ATOM      3  C9  UNL     1      -1.994  -1.460  -0.399  0.00  0.00    +0.000 C 
ATOM      4  C10 UNL     1      -2.782  -0.350   0.317  0.00  0.00    +0.000 C 
ATOM      5  C11 UNL     1      -2.106   1.044   0.070  0.00  0.00    +0.000 C 
ATOM      6  O1  UNL     1      -0.745   0.936  -0.336  0.00  0.00    +0.000 OA
ENDROOT
BRANCH   1  12
ATOM      7  C1  UNL     1       1.957   0.365  -1.061  0.00  0.00    +0.000 A 
ATOM      8  C2  UNL     1       3.336   0.472  -1.261  0.00  0.00    +0.000 A 
ATOM      9  C3  UNL     1       4.218   0.338  -0.180  0.00  0.00    +0.000 A 
ATOM     10  C4  UNL     1       3.714   0.090   1.103  0.00  0.00    +0.000 A 
ATOM     11  C5  UNL     1       2.330  -0.017   1.303  0.00  0.00    +0.000 A 
ATOM     12  C6  UNL     1       1.440   0.134   0.226  0.00  0.00    +0.000 A 
BRANCH  10  13
ATOM     13  O6  UNL     1       4.595  -0.051   2.174  0.00  0.00    +0.000 OA
ATOM     14  H15 UNL     1       4.262  -0.231   3.114  0.00  0.00    +0.000 HD
ENDBRANCH  10  13
BRANCH   9  15
ATOM     15  O7  UNL     1       5.593   0.445  -0.375  0.00  0.00    +0.000 OA
ATOM     16  H16 UNL     1       5.987   0.622  -1.292  0.00  0.00    +0.000 HD
ENDBRANCH   9  15
ENDBRANCH   1  12
BRANCH   4  17
ATOM     17  O3  UNL     1      -4.124  -0.356  -0.106  0.00  0.00    +0.000 OA
ATOM     18  H12 UNL     1      -4.586  -1.077   0.396  0.00  0.00    +0.000 HD
ENDBRANCH   4  17
BRANCH   3  19
ATOM     19  O4  UNL     1      -2.585  -2.709  -0.149  0.00  0.00    +0.000 OA
ATOM     20  H13 UNL     1      -2.198  -3.343  -0.807  0.00  0.00    +0.000 HD
ENDBRANCH   3  19
BRANCH   2  21
ATOM     21  O5  UNL     1      -0.281  -2.344   1.118  0.00  0.00    +0.000 OA
ATOM     22  H14 UNL     1      -0.866  -2.071   1.871  0.00  0.00    +0.000 HD
ENDBRANCH   2  21
BRANCH   5  23
ATOM     23  C12 UNL     1      -2.844   1.878  -0.988  0.00  0.00    +0.000 C 
BRANCH  23  24
ATOM     24  O2  UNL     1      -2.180   3.097  -1.179  0.00  0.00    +0.000 OA
ATOM     25  H11 UNL     1      -2.688   3.581  -1.881  0.00  0.00    +0.000 HD
ENDBRANCH  23  24
ENDBRANCH   5  23
TORSDOF 8
