REMARK  Name = .\curcumin.pdb
REMARK  12 active torsions:
REMARK  status: ('A' for Active; 'I' for Inactive)
REMARK    1  A    between atoms: C1_1  and  O1_2
REMARK    2  A    between atoms: O1_2  and  C2_3
REMARK    3  A    between atoms: C4_5  and  O6_27
REMARK    4  A    between atoms: C7_8  and  C8_9
REMARK    5  A    between atoms: C9_10  and  C10_11
REMARK    6  A    between atoms: C10_11  and  C11_13
REMARK    7  A    between atoms: C11_13  and  C12_14
REMARK    8  A    between atoms: C12_14  and  C13_16
REMARK    9  A    between atoms: C14_17  and  C15_18
REMARK   10  A    between atoms: C17_20  and  O5_25
REMARK   11  A    between atoms: C18_21  and  O4_24
REMARK   12  A    between atoms: O5_25  and  C21_26
REMARK                            x       y       z     vdW  Elec       q    Type
REMARK                         _______ _______ _______ _____ _____    ______ ____
ROOT
ATOM      1  C11 UNL     1      -0.113   0.253  -1.728  0.00  0.00    +0.000 C 
ENDROOT
BRANCH   1   2
ATOM      2  C10 UNL     1      -1.477  -0.216  -2.151  0.00  0.00    +0.000 C 
ATOM      3  O2  UNL     1      -1.658  -0.596  -3.339  0.00  0.00    +0.000 OA
BRANCH   2   5
ATOM      4  C8  UNL     1      -3.801  -0.706  -1.486  0.00  0.00    +0.000 C 
ATOM      5  C9  UNL     1      -2.577  -0.266  -1.168  0.00  0.00    +0.000 C 
BRANCH   4  11
ATOM      6  C2  UNL     1      -5.155   0.223   0.450  0.00  0.00    +0.000 A 
ATOM      7  C3  UNL     1      -6.215   0.062   1.366  0.00  0.00    +0.000 A 
ATOM      8  C4  UNL     1      -7.030  -1.076   1.319  0.00  0.00    +0.000 A 
ATOM      9  C5  UNL     1      -6.797  -2.058   0.355  0.00  0.00    +0.000 A 
ATOM     10  C6  UNL     1      -5.746  -1.916  -0.551  0.00  0.00    +0.000 A 
ATOM     11  C7  UNL     1      -4.902  -0.795  -0.500  0.00  0.00    +0.000 A 
BRANCH   6  13
ATOM     12  C1  UNL     1      -4.517   2.477   1.343  0.00  0.00    +0.000 C 
ATOM     13  O1  UNL     1      -4.365   1.385   0.442  0.00  0.00    +0.000 OA
ENDBRANCH   6  13
BRANCH   8  14
ATOM     14  O6  UNL     1      -8.080  -1.235   2.221  0.00  0.00    +0.000 OA
ATOM     15  H20 UNL     1      -8.279  -0.541   2.932  0.00  0.00    +0.000 HD
ENDBRANCH   8  14
ENDBRANCH   4  11
ENDBRANCH   2   5
ENDBRANCH   1   2
BRANCH   1  16
ATOM     16  C12 UNL     1       0.711  -0.852  -1.108  0.00  0.00    +0.000 C 
ATOM     17  O3  UNL     1       0.216  -2.002  -0.963  0.00  0.00    +0.000 OA
BRANCH  16  18
ATOM     18  C13 UNL     1       2.102  -0.632  -0.656  0.00  0.00    +0.000 C 
ATOM     19  C14 UNL     1       2.721   0.557  -0.723  0.00  0.00    +0.000 C 
BRANCH  19  20
ATOM     20  C15 UNL     1       4.112   0.783  -0.259  0.00  0.00    +0.000 A 
ATOM     21  C16 UNL     1       5.068  -0.252  -0.202  0.00  0.00    +0.000 A 
ATOM     22  C17 UNL     1       6.382   0.008   0.235  0.00  0.00    +0.000 A 
ATOM     23  C18 UNL     1       6.739   1.312   0.604  0.00  0.00    +0.000 A 
ATOM     24  C19 UNL     1       5.798   2.345   0.531  0.00  0.00    +0.000 A 
ATOM     25  C20 UNL     1       4.497   2.084   0.097  0.00  0.00    +0.000 A 
BRANCH  23  26
ATOM     26  O4  UNL     1       8.037   1.574   1.039  0.00  0.00    +0.000 OA
ATOM     27  H16 UNL     1       8.328   2.507   1.311  0.00  0.00    +0.000 HD
ENDBRANCH  23  26
BRANCH  22  28
ATOM     28  O5  UNL     1       7.359  -0.998   0.312  0.00  0.00    +0.000 OA
ATOM     29  C21 UNL     1       7.139  -2.364  -0.024  0.00  0.00    +0.000 C 
ENDBRANCH  22  28
ENDBRANCH  19  20
ENDBRANCH  16  18
ENDBRANCH   1  16
TORSDOF 10
