REMARK  Name = .\Withaferin A.pdb
REMARK  8 active torsions:
REMARK  status: ('A' for Active; 'I' for Inactive)
REMARK    1  A    between atoms: C1_1  and  C2_2
REMARK    2  A    between atoms: C3_3  and  O6_33
REMARK    3  A    between atoms: C5_7  and  C7_9
REMARK    4  A    between atoms: C7_9  and  C8_10
REMARK    5  A    between atoms: C7_9  and  C9_11
REMARK    6  A    between atoms: C13_15  and  C27_32
REMARK    7  A    between atoms: C21_23  and  C26_30
REMARK    8  A    between atoms: C25_28  and  O4_29
REMARK                            x       y       z     vdW  Elec       q    Type
REMARK                         _______ _______ _______ _____ _____    ______ ____
ROOT
ATOM      1  C9  UNL     1       1.995  -0.212   0.010  0.00  0.00    +0.000 C 
ATOM      2  C10 UNL     1       1.834  -0.003   1.524  0.00  0.00    +0.000 C 
ATOM      3  C11 UNL     1       0.439  -0.483   1.900  0.00  0.00    +0.000 C 
ATOM      4  C12 UNL     1      -0.218  -1.008   0.615  0.00  0.00    +0.000 C 
ATOM      5  C13 UNL     1       0.530  -0.297  -0.537  0.00  0.00    +0.000 C 
ATOM      6  C14 UNL     1      -0.080   1.112  -0.755  0.00  0.00    +0.000 C 
ATOM      7  C15 UNL     1      -1.573   1.049  -1.048  0.00  0.00    +0.000 C 
ATOM      8  C16 UNL     1      -2.400   0.455   0.122  0.00  0.00    +0.000 C 
ATOM      9  C17 UNL     1      -1.783  -0.878   0.664  0.00  0.00    +0.000 C 
ATOM     10  C18 UNL     1      -2.523  -2.113   0.112  0.00  0.00    +0.000 C 
ATOM     11  C19 UNL     1      -4.003  -2.119   0.529  0.00  0.00    +0.000 C 
ATOM     12  C20 UNL     1      -4.734  -0.835   0.403  0.00  0.00    +0.000 C 
ATOM     13  C21 UNL     1      -3.979   0.402  -0.199  0.00  0.00    +0.000 C 
ATOM     14  C22 UNL     1      -4.652   1.660   0.342  0.00  0.00    +0.000 C 
ATOM     15  O3  UNL     1      -4.174   2.761   0.106  0.00  0.00    +0.000 OA
ATOM     16  C23 UNL     1      -5.922   1.571   1.152  0.00  0.00    +0.000 C 
ATOM     17  C24 UNL     1      -6.883   0.564   0.508  0.00  0.00    +0.000 C 
ATOM     18  C25 UNL     1      -6.282  -0.861   0.417  0.00  0.00    +0.000 C 
ATOM     19  C26 UNL     1      -4.270   0.359  -1.726  0.00  0.00    +0.000 C 
ATOM     20  O5  UNL     1      -4.248  -1.284   1.646  0.00  0.00    +0.000 OA
ATOM     21  C27 UNL     1       0.459  -1.159  -1.826  0.00  0.00    +0.000 C 
ENDROOT
BRANCH   1  22
ATOM     22  C7  UNL     1       2.972   0.841  -0.633  0.00  0.00    +0.000 C 
ATOM     23  C8  UNL     1       3.178   0.604  -2.144  0.00  0.00    +0.000 C 
BRANCH  22  30
ATOM     24  C1  UNL     1       7.257  -1.361   1.258  0.00  0.00    +0.000 C 
ATOM     25  C2  UNL     1       6.558  -0.199   0.608  0.00  0.00    +0.000 C 
ATOM     26  C3  UNL     1       7.191   0.981   0.470  0.00  0.00    +0.000 C 
ATOM     27  C4  UNL     1       6.482   2.110  -0.161  0.00  0.00    +0.000 C 
ATOM     28  O1  UNL     1       7.096   3.164  -0.472  0.00  0.00    +0.000 OA
ATOM     29  O2  UNL     1       5.117   1.998  -0.429  0.00  0.00    +0.000 OA
ATOM     30  C5  UNL     1       4.349   0.914   0.099  0.00  0.00    +0.000 C 
ATOM     31  C6  UNL     1       5.171  -0.395   0.030  0.00  0.00    +0.000 C 
BRANCH  26  32
ATOM     32  O6  UNL     1       8.502   1.136   0.926  0.00  0.00    +0.000 OA
ATOM     33  H38 UNL     1       8.994   2.017   0.841  0.00  0.00    +0.000 HD
ENDBRANCH  26  32
ENDBRANCH  22  30
ENDBRANCH   1  22
BRANCH  18  34
ATOM     34  O4  UNL     1      -6.745  -1.511  -0.738  0.00  0.00    +0.000 OA
ATOM     35  H31 UNL     1      -7.705  -1.713  -0.587  0.00  0.00    +0.000 HD
ENDBRANCH  18  34
TORSDOF 4
